<nodes>
	<node id="10002543930" x="394159.72" y="5708536.55" z="0.00" type="traffic_light" />
	<node id="10002556573" x="394288.32" y="5708161.90" z="0.00" type="traffic_light" />
	<node id="10002556574" x="394277.84" y="5708148.11" z="0.00" type="traffic_light" />
	<node id="10019332223" x="390822.20" y="5707986.40" z="0.00" type="traffic_light" />
	<node id="10019332226" x="390818.55" y="5707943.33" z="0.00" type="traffic_light" />
	<node id="10025333861" x="396281.56" y="5709701.66" z="0.00" type="priority" />
	<node id="10032287837" x="392840.14" y="5708087.32" z="0.00" type="priority" />
	<node id="10032287843" x="392819.21" y="5708131.92" z="0.00" type="traffic_light" />
	<node id="10032287846" x="392802.46" y="5708090.45" z="0.00" type="traffic_light" />
	<node id="10039986807" x="395218.72" y="5708267.21" z="0.00" type="priority" />
	<node id="10040833505" x="395050.01" y="5708528.39" z="0.00" type="traffic_light" />
	<node id="10040833506" x="395089.35" y="5708528.89" z="0.00" type="traffic_light" />
	<node id="10040833509" x="395071.42" y="5708510.88" z="0.00" type="traffic_light" />
	<node id="10040833510" x="395064.60" y="5708547.15" z="0.00" type="traffic_light" />
	<node id="10040850617" x="395077.55" y="5708581.13" z="0.00" type="priority" />
	<node id="10040850621" x="395068.35" y="5708451.34" z="0.00" type="priority" />
	<node id="10040850628" x="395071.83" y="5708528.72" z="0.00" type="priority" />
	<node id="10052662812" x="397295.74" y="5708774.81" z="0.00" type="traffic_light" />
	<node id="10052662815" x="397131.24" y="5708766.03" z="0.00" type="traffic_light" />
	<node id="10052694849" x="394143.11" y="5708064.03" z="0.00" type="traffic_light" />
	<node id="10052694851" x="394128.91" y="5708097.26" z="0.00" type="traffic_light" />
	<node id="10052697017" x="397166.85" y="5708786.94" z="0.00" type="traffic_light" />
	<node id="10052697018" x="397146.02" y="5708798.53" z="0.00" type="traffic_light" />
	<node id="10052706565" x="393689.92" y="5707141.24" z="0.00" type="traffic_light" />
	<node id="10052706566" x="393713.17" y="5707165.58" z="0.00" type="traffic_light" />
	<node id="10052706567" x="393668.17" y="5707153.80" z="0.00" type="traffic_light" />
	<node id="10052706568" x="393682.78" y="5707177.62" z="0.00" type="traffic_light" />
	<node id="10053972102" x="394666.97" y="5708002.19" z="0.00" type="priority" />
	<node id="10054145998" x="394085.56" y="5708270.78" z="0.00" type="priority" />
	<node id="10054705368" x="394061.53" y="5708209.53" z="0.00" type="traffic_light" />
	<node id="10062749840" x="397207.31" y="5709355.59" z="0.00" type="traffic_light" />
	<node id="10062749841" x="397180.50" y="5709346.69" z="0.00" type="traffic_light" />
	<node id="10062749842" x="397199.81" y="5709335.47" z="0.00" type="traffic_light" />
	<node id="10062749843" x="397187.87" y="5709365.75" z="0.00" type="traffic_light" />
	<node id="10078233045" x="394472.79" y="5709242.78" z="0.00" type="traffic_light" />
	<node id="10086125039" x="393157.76" y="5708793.02" z="0.00" type="traffic_light" />
	<node id="10086125043" x="392978.81" y="5708769.59" z="0.00" type="traffic_light" />
	<node id="10086125044" x="392996.00" y="5708770.44" z="0.00" type="priority" />
	<node id="10086125045" x="393005.17" y="5708770.77" z="0.00" type="priority" />
	<node id="10086125051" x="392993.63" y="5708794.27" z="0.00" type="traffic_light" />
	<node id="10086125052" x="393020.02" y="5708781.28" z="0.00" type="traffic_light" />
	<node id="10086125053" x="392994.89" y="5708780.33" z="0.00" type="priority" />
	<node id="10087848519" x="393639.65" y="5710396.93" z="0.00" type="priority" />
	<node id="10087848527" x="393651.44" y="5710428.34" z="0.00" type="traffic_light" />
	<node id="10087848529" x="393658.49" y="5710450.92" z="0.00" type="priority" />
	<node id="10087848530" x="393647.50" y="5710451.16" z="0.00" type="priority" />
	<node id="10107552895" x="397162.87" y="5705752.50" z="0.00" type="traffic_light" />
	<node id="10107552906" x="397187.57" y="5705756.95" z="0.00" type="priority" />
	<node id="10115614526" x="392187.27" y="5709359.49" z="0.00" type="priority" />
	<node id="10115614533" x="392167.33" y="5709366.22" z="0.00" type="priority" />
	<node id="10124996979" x="396291.49" y="5708174.13" z="0.00" type="priority" />
	<node id="10136522143" x="394057.08" y="5708100.56" z="0.00" type="priority" />
	<node id="10167345915" x="392865.23" y="5706916.80" z="0.00" type="priority" />
	<node id="10167345916" x="392855.90" y="5706935.00" z="0.00" type="traffic_light" />
	<node id="10167372417" x="392840.80" y="5706866.60" z="0.00" type="priority" />
	<node id="10167372419" x="392872.35" y="5706906.82" z="0.00" type="priority" />
	<node id="10167372423" x="392860.43" y="5706890.45" z="0.00" type="traffic_light" />
	<node id="10167372435" x="392860.83" y="5706879.63" z="0.00" type="traffic_light" />
	<node id="10167372439" x="392834.35" y="5706943.30" z="0.00" type="traffic_light" />
	<node id="10167372440" x="392848.75" y="5706966.68" z="0.00" type="traffic_light" />
	<node id="10167372480" x="392851.73" y="5706952.83" z="0.00" type="priority" />
	<node id="10176328628" x="394146.37" y="5707938.72" z="0.00" type="priority" />
	<node id="10176328629" x="394136.43" y="5707938.80" z="0.00" type="priority" />
	<node id="10176328632" x="394145.43" y="5707919.90" z="0.00" type="traffic_light" />
	<node id="10176328637" x="394137.08" y="5707957.02" z="0.00" type="traffic_light" />
	<node id="10176342746" x="394155.86" y="5707844.16" z="0.00" type="traffic_light" />
	<node id="10177320660" x="395100.80" y="5708046.94" z="0.00" type="traffic_light" />
	<node id="10177320662" x="395076.56" y="5708056.57" z="0.00" type="traffic_light" />
	<node id="10177320663" x="395068.04" y="5708056.80" z="0.00" type="traffic_light" />
	<node id="10177320664" x="395060.27" y="5708018.83" z="0.00" type="traffic_light" />
	<node id="10177320670" x="395102.98" y="5708040.75" z="0.00" type="traffic_light" />
	<node id="10177320671" x="395077.40" y="5708033.79" z="0.00" type="priority" />
	<node id="10177320672" x="395129.89" y="5708049.70" z="0.00" type="priority" />
	<node id="10177320678" x="395087.31" y="5708006.99" z="0.00" type="traffic_light" />
	<node id="10177320681" x="395086.68" y="5708023.62" z="0.00" type="priority" />
	<node id="10177320682" x="395086.51" y="5708045.33" z="0.00" type="priority" />
	<node id="10177320685" x="395086.82" y="5708036.40" z="0.00" type="priority" />
	<node id="10177449456" x="394975.00" y="5709166.99" z="0.00" type="traffic_light" />
	<node id="10177449457" x="394968.81" y="5709156.35" z="0.00" type="traffic_light" />
	<node id="10177449458" x="395013.20" y="5709152.64" z="0.00" type="traffic_light" />
	<node id="10177597714" x="394649.78" y="5709063.12" z="0.00" type="priority" />
	<node id="10177658500" x="394747.96" y="5709119.92" z="0.00" type="priority" />
	<node id="10177669118" x="394698.79" y="5709149.26" z="0.00" type="priority" />
	<node id="10177669122" x="394683.27" y="5709157.66" z="0.00" type="traffic_light" />
	<node id="10177669132" x="394620.00" y="5709150.54" z="0.00" type="traffic_light" />
	<node id="10177681520" x="394661.66" y="5709091.23" z="0.00" type="priority" />
	<node id="10177681528" x="394659.79" y="5709086.79" z="0.00" type="priority" />
	<node id="10205499165" x="392520.25" y="5706344.99" z="0.00" type="priority" />
	<node id="10205505486" x="392573.67" y="5706659.82" z="0.00" type="priority" />
	<node id="10208903479" x="390706.17" y="5709054.36" z="0.00" type="traffic_light" />
	<node id="10208903480" x="390738.16" y="5709049.68" z="0.00" type="traffic_light" />
	<node id="10208903481" x="390700.04" y="5709025.72" z="0.00" type="traffic_light" />
	<node id="10208903482" x="390730.00" y="5709020.29" z="0.00" type="traffic_light" />
	<node id="10210978032" x="390750.23" y="5706213.73" z="0.00" type="traffic_light" />
	<node id="10213605419" x="396009.68" y="5708768.27" z="0.00" type="priority" />
	<node id="10231164250" x="391513.37" y="5708808.50" z="0.00" type="traffic_light" />
	<node id="10231224231" x="391240.56" y="5708509.68" z="0.00" type="priority" />
	<node id="10231224234" x="391272.67" y="5708439.72" z="0.00" type="traffic_light" />
	<node id="10243910767" x="393700.52" y="5707692.40" z="0.00" type="priority" />
	<node id="102894846" x="397296.66" y="5706984.47" z="0.00" type="priority" />
	<node id="102955130" x="392340.86" y="5706344.36" z="0.00" type="priority" />
	<node id="102955251" x="392288.14" y="5706274.82" z="0.00" type="priority" />
	<node id="102955254" x="392274.46" y="5706260.47" z="0.00" type="priority" />
	<node id="102955257" x="392235.30" y="5706231.84" z="0.00" type="priority" />
	<node id="102955291" x="391931.59" y="5706001.74" z="0.00" type="priority" />
	<node id="102955296" x="391854.27" y="5705905.88" z="0.00" type="priority" />
	<node id="102955299" x="391820.78" y="5705865.54" z="0.00" type="priority" />
	<node id="10301889560" x="394177.82" y="5708507.73" z="0.00" type="traffic_light" />
	<node id="10538366187" x="395708.31" y="5706365.29" z="0.00" type="traffic_light" />
	<node id="10538366188" x="395692.46" y="5706351.47" z="0.00" type="traffic_light" />
	<node id="10538366189" x="395669.16" y="5706378.34" z="0.00" type="traffic_light" />
	<node id="10538366190" x="395684.79" y="5706390.57" z="0.00" type="traffic_light" />
	<node id="10538386860" x="394097.56" y="5708805.73" z="0.00" type="traffic_light" />
	<node id="10538386863" x="394128.54" y="5708801.42" z="0.00" type="traffic_light" />
	<node id="10547876495" x="392586.94" y="5710172.45" z="0.00" type="traffic_light" />
	<node id="10547876496" x="392536.69" y="5710163.58" z="0.00" type="traffic_light" />
	<node id="10547876497" x="392565.64" y="5710147.56" z="0.00" type="traffic_light" />
	<node id="10564075490" x="394692.11" y="5709234.44" z="0.00" type="priority" />
	<node id="10564075494" x="394792.95" y="5709647.80" z="0.00" type="priority" />
	<node id="10564090032" x="394817.14" y="5709768.03" z="0.00" type="priority" />
	<node id="10564090050" x="394810.49" y="5709769.61" z="0.00" type="priority" />
	<node id="10566694519" x="395619.38" y="5706101.75" z="0.00" type="priority" />
	<node id="10566694522" x="395626.86" y="5706399.32" z="0.00" type="priority" />
	<node id="10569260769" x="393565.84" y="5710067.36" z="0.00" type="traffic_light" />
	<node id="10569260770" x="393555.72" y="5710090.55" z="0.00" type="traffic_light" />
	<node id="10569260771" x="393533.36" y="5710076.87" z="0.00" type="traffic_light" />
	<node id="10569260772" x="393546.20" y="5710055.48" z="0.00" type="traffic_light" />
	<node id="10575510546" x="390183.60" y="5707973.48" z="0.00" type="priority" />
	<node id="10575510547" x="390207.32" y="5707993.75" z="0.00" type="priority" />
	<node id="10575833412" x="393240.86" y="5707576.68" z="0.00" type="traffic_light" />
	<node id="10575833413" x="393236.14" y="5707549.72" z="0.00" type="traffic_light" />
	<node id="10575833414" x="393221.15" y="5707568.13" z="0.00" type="traffic_light" />
	<node id="10578490266" x="395038.55" y="5706624.49" z="0.00" type="priority" />
	<node id="10578551390" x="395279.88" y="5706237.16" z="0.00" type="priority" />
	<node id="10578551417" x="394975.75" y="5706616.16" z="0.00" type="priority" />
	<node id="10581904699" x="395191.61" y="5709894.03" z="0.00" type="priority" />
	<node id="10588024289" x="395705.24" y="5706904.57" z="0.00" type="traffic_light" />
	<node id="10588024290" x="395693.24" y="5706894.00" z="0.00" type="traffic_light" />
	<node id="10588024291" x="395697.70" y="5706877.89" z="0.00" type="priority" />
	<node id="10588024292" x="395714.64" y="5706868.40" z="0.00" type="traffic_light" />
	<node id="10588024293" x="395723.19" y="5706869.11" z="0.00" type="traffic_light" />
	<node id="10588024294" x="395682.83" y="5706874.71" z="0.00" type="traffic_light" />
	<node id="10588024295" x="395697.92" y="5706917.78" z="0.00" type="priority" />
	<node id="10588024296" x="395718.13" y="5706920.42" z="0.00" type="traffic_light" />
	<node id="10602267400" x="394210.88" y="5706986.52" z="0.00" type="traffic_light" />
	<node id="10602323610" x="392584.94" y="5709930.32" z="0.00" type="traffic_light" />
	<node id="10602323611" x="392584.25" y="5709937.38" z="0.00" type="traffic_light" />
	<node id="10602323636" x="392622.92" y="5709517.76" z="0.00" type="priority" />
	<node id="10602350255" x="394231.21" y="5707035.09" z="0.00" type="traffic_light" />
	<node id="10602350256" x="394236.56" y="5707012.18" z="0.00" type="traffic_light" />
	<node id="10602390934" x="394484.63" y="5707126.00" z="0.00" type="priority" />
	<node id="10606070333" x="393895.87" y="5705735.84" z="0.00" type="priority" />
	<node id="10606370705" x="393436.71" y="5707646.12" z="0.00" type="traffic_light" />
	<node id="10606370706" x="393444.28" y="5707658.23" z="0.00" type="traffic_light" />
	<node id="10624828469" x="393012.21" y="5709971.65" z="0.00" type="traffic_light" />
	<node id="10624828482" x="392987.16" y="5709947.52" z="0.00" type="priority" />
	<node id="10624828486" x="393021.57" y="5709962.43" z="0.00" type="priority" />
	<node id="10624828487" x="393014.33" y="5709951.50" z="0.00" type="traffic_light" />
	<node id="10624828490" x="393047.06" y="5709976.14" z="0.00" type="traffic_light" />
	<node id="10624828492" x="393036.71" y="5709970.09" z="0.00" type="priority" />
	<node id="10624828494" x="393044.37" y="5709974.18" z="0.00" type="priority" />
	<node id="10624828495" x="393061.36" y="5709979.79" z="0.00" type="priority" />
	<node id="10675553583" x="392912.51" y="5710323.92" z="0.00" type="priority" />
	<node id="10692297990" x="393911.89" y="5707804.81" z="0.00" type="priority" />
	<node id="10700268680" x="393563.96" y="5706426.57" z="0.00" type="priority" />
	<node id="10700268688" x="393588.74" y="5706428.88" z="0.00" type="priority" />
	<node id="10704173560" x="393045.44" y="5707566.56" z="0.00" type="traffic_light" />
	<node id="10704173561" x="393052.16" y="5707566.83" z="0.00" type="traffic_light" />
	<node id="10716773847" x="393078.73" y="5707112.35" z="0.00" type="priority" />
	<node id="10731504945" x="393049.97" y="5709956.65" z="0.00" type="traffic_light" />
	<node id="10732578720" x="393162.48" y="5709817.48" z="0.00" type="traffic_light" />
	<node id="10732578725" x="393182.56" y="5709822.90" z="0.00" type="traffic_light" />
	<node id="107370901" x="393233.48" y="5709272.16" z="0.00" type="priority" />
	<node id="107376973" x="390722.05" y="5709046.00" z="0.00" type="priority" />
	<node id="107388461" x="397009.17" y="5709292.06" z="0.00" type="priority" />
	<node id="10739350673" x="392609.16" y="5708254.72" z="0.00" type="priority" />
	<node id="10745455384" x="393417.24" y="5709573.13" z="0.00" type="priority" />
	<node id="10764877610" x="391528.28" y="5708783.80" z="0.00" type="priority" />
	<node id="10764877613" x="391537.66" y="5708768.25" z="0.00" type="traffic_light" />
	<node id="10771243736" x="393942.87" y="5708538.90" z="0.00" type="priority" />
	<node id="10771362993" x="393545.98" y="5708689.71" z="0.00" type="priority" />
	<node id="10771902433" x="393466.16" y="5708641.42" z="0.00" type="traffic_light" />
	<node id="10771902434" x="393478.94" y="5708643.85" z="0.00" type="traffic_light" />
	<node id="10774250934" x="393772.95" y="5708421.21" z="0.00" type="priority" />
	<node id="10795260553" x="394008.40" y="5710036.00" z="0.00" type="priority" />
	<node id="10798568941" x="394786.35" y="5706835.61" z="0.00" type="traffic_light" />
	<node id="10798568942" x="394757.48" y="5706829.55" z="0.00" type="traffic_light" />
	<node id="10798568943" x="394787.02" y="5706815.61" z="0.00" type="traffic_light" />
	<node id="10798568944" x="394759.69" y="5706809.49" z="0.00" type="traffic_light" />
	<node id="10798568945" x="394776.39" y="5706826.38" z="0.00" type="priority" />
	<node id="10798568946" x="394768.50" y="5706818.51" z="0.00" type="priority" />
	<node id="10800404681" x="391790.91" y="5707578.96" z="0.00" type="priority" />
	<node id="10800404683" x="391788.18" y="5707568.78" z="0.00" type="priority" />
	<node id="10803966647" x="394409.04" y="5706632.54" z="0.00" type="priority" />
	<node id="10803966664" x="394409.82" y="5706632.09" z="0.00" type="priority" />
	<node id="10834366471" x="393478.48" y="5708282.60" z="0.00" type="priority" />
	<node id="10834366472" x="393442.18" y="5708271.56" z="0.00" type="priority" />
	<node id="10834366473" x="393389.48" y="5708384.61" z="0.00" type="priority" />
	<node id="10834366474" x="393376.82" y="5708418.82" z="0.00" type="priority" />
	<node id="10834366475" x="393361.23" y="5708460.92" z="0.00" type="priority" />
	<node id="10862442424" x="395855.14" y="5706930.64" z="0.00" type="priority" />
	<node id="10862442425" x="395769.06" y="5706924.78" z="0.00" type="traffic_light" />
	<node id="10862563996" x="395604.72" y="5706995.86" z="0.00" type="priority" />
	<node id="10862587448" x="395642.61" y="5706970.66" z="0.00" type="priority" />
	<node id="10862587536" x="395556.65" y="5706850.92" z="0.00" type="priority" />
	<node id="10862654710" x="395678.91" y="5706913.33" z="0.00" type="priority" />
	<node id="10862673009" x="395369.91" y="5706810.65" z="0.00" type="priority" />
	<node id="10863677735" x="397127.56" y="5706939.18" z="0.00" type="priority" />
	<node id="10863781196" x="397207.15" y="5706994.76" z="0.00" type="priority" />
	<node id="10863781197" x="397201.84" y="5706993.28" z="0.00" type="priority" />
	<node id="10865483146" x="394673.86" y="5706581.32" z="0.00" type="priority" />
	<node id="10870695689" x="393760.40" y="5707660.76" z="0.00" type="priority" />
	<node id="10870835040" x="393708.47" y="5707641.01" z="0.00" type="priority" />
	<node id="10871799422" x="393692.43" y="5707634.68" z="0.00" type="priority" />
	<node id="10871799423" x="393700.03" y="5707625.30" z="0.00" type="priority" />
	<node id="10871799424" x="393695.43" y="5707630.97" z="0.00" type="priority" />
	<node id="10871799429" x="393691.36" y="5707624.98" z="0.00" type="priority" />
	<node id="10871799439" x="393702.73" y="5707645.92" z="0.00" type="priority" />
	<node id="10876377888" x="393539.65" y="5709567.24" z="0.00" type="priority" />
	<node id="10876385059" x="395116.43" y="5706722.89" z="0.00" type="priority" />
	<node id="10878107920" x="393388.89" y="5707842.83" z="0.00" type="priority" />
	<node id="10878185059" x="393393.36" y="5707647.22" z="0.00" type="priority" />
	<node id="10879187213" x="393691.64" y="5706377.12" z="0.00" type="priority" />
	<node id="10879209419" x="393668.43" y="5706435.72" z="0.00" type="priority" />
	<node id="10879212682" x="393655.96" y="5706019.22" z="0.00" type="priority" />
	<node id="10879226903" x="393649.46" y="5705872.11" z="0.00" type="priority" />
	<node id="10879231026" x="393700.16" y="5706040.70" z="0.00" type="priority" />
	<node id="10879234525" x="393630.47" y="5705788.56" z="0.00" type="priority" />
	<node id="10879241310" x="393710.85" y="5706293.94" z="0.00" type="priority" />
	<node id="10879241311" x="393702.09" y="5706263.33" z="0.00" type="priority" />
	<node id="10879472677" x="393891.01" y="5706417.39" z="0.00" type="priority" />
	<node id="10879527213" x="393679.22" y="5706340.24" z="0.00" type="priority" />
	<node id="10880851528" x="392837.69" y="5708105.52" z="0.00" type="priority" />
	<node id="10880943164" x="392829.04" y="5708317.96" z="0.00" type="priority" />
	<node id="10880943165" x="392846.10" y="5708333.41" z="0.00" type="priority" />
	<node id="10881226686" x="393510.82" y="5708517.64" z="0.00" type="priority" />
	<node id="10881226694" x="393580.51" y="5708526.03" z="0.00" type="priority" />
	<node id="10881236480" x="394033.36" y="5708037.30" z="0.00" type="priority" />
	<node id="10881236483" x="394039.69" y="5708139.79" z="0.00" type="priority" />
	<node id="10881543783" x="393844.84" y="5708418.53" z="0.00" type="priority" />
	<node id="10881592789" x="393985.99" y="5709632.29" z="0.00" type="priority" />
	<node id="10881597587" x="393973.51" y="5709520.49" z="0.00" type="priority" />
	<node id="10881643175" x="394061.84" y="5709866.44" z="0.00" type="priority" />
	<node id="10881664481" x="394211.04" y="5710523.21" z="0.00" type="priority" />
	<node id="10900111858" x="393484.71" y="5708531.81" z="0.00" type="traffic_light" />
	<node id="10900111859" x="393442.64" y="5708511.70" z="0.00" type="traffic_light" />
	<node id="10900111861" x="393454.61" y="5708542.16" z="0.00" type="traffic_light" />
	<node id="1090716531" x="394143.37" y="5707832.14" z="0.00" type="traffic_light" />
	<node id="1090716552" x="394133.97" y="5707860.02" z="0.00" type="traffic_light" />
	<node id="10911314956" x="390744.54" y="5706377.08" z="0.00" type="priority" />
	<node id="10911314962" x="390976.84" y="5706374.22" z="0.00" type="priority" />
	<node id="10911355163" x="392190.48" y="5706303.42" z="0.00" type="priority" />
	<node id="10911355168" x="392305.42" y="5706313.89" z="0.00" type="priority" />
	<node id="10911355175" x="392456.84" y="5706326.92" z="0.00" type="priority" />
	<node id="10911355176" x="392577.00" y="5706333.30" z="0.00" type="priority" />
	<node id="10911355188" x="393230.87" y="5706379.91" z="0.00" type="priority" />
	<node id="10911355191" x="393494.25" y="5706404.17" z="0.00" type="priority" />
	<node id="10911355201" x="394113.47" y="5706471.93" z="0.00" type="priority" />
	<node id="10911423670" x="390776.16" y="5706363.19" z="0.00" type="priority" />
	<node id="10911423690" x="392327.97" y="5706290.76" z="0.00" type="priority" />
	<node id="10911423698" x="392414.98" y="5706295.28" z="0.00" type="priority" />
	<node id="10911423704" x="392802.31" y="5706318.44" z="0.00" type="priority" />
	<node id="10911425405" x="392763.60" y="5706315.99" z="0.00" type="priority" />
	<node id="10911425410" x="392913.30" y="5706325.81" z="0.00" type="priority" />
	<node id="10932045332" x="390507.25" y="5707515.55" z="0.00" type="traffic_light" />
	<node id="10932045333" x="390496.99" y="5707534.61" z="0.00" type="traffic_light" />
	<node id="10932045334" x="390485.79" y="5707497.56" z="0.00" type="traffic_light" />
	<node id="10932045335" x="390497.28" y="5707496.18" z="0.00" type="traffic_light" />
	<node id="11032266027" x="392396.83" y="5705951.15" z="0.00" type="priority" />
	<node id="11070111747" x="395965.27" y="5705693.29" z="0.00" type="priority" />
	<node id="11070398459" x="392550.95" y="5706856.51" z="0.00" type="traffic_light" />
	<node id="11070398462" x="392555.46" y="5706817.99" z="0.00" type="traffic_light" />
	<node id="11070398465" x="392569.50" y="5706840.03" z="0.00" type="traffic_light" />
	<node id="11070398466" x="392532.06" y="5706838.25" z="0.00" type="traffic_light" />
	<node id="11074337087" x="393453.28" y="5709033.05" z="0.00" type="priority" />
	<node id="11076066315" x="396983.73" y="5708483.68" z="0.00" type="priority" />
	<node id="11080214535" x="397142.59" y="5707147.96" z="0.00" type="priority" />
	<node id="11082209877" x="393834.57" y="5707453.25" z="0.00" type="priority" />
	<node id="11082369158" x="394137.49" y="5707701.86" z="0.00" type="traffic_light" />
	<node id="11082369159" x="394115.91" y="5707718.91" z="0.00" type="traffic_light" />
	<node id="11082369160" x="394151.08" y="5707718.93" z="0.00" type="traffic_light" />
	<node id="11119507329" x="393907.54" y="5710072.75" z="0.00" type="priority" />
	<node id="11135668983" x="393259.52" y="5709187.54" z="0.00" type="priority" />
	<node id="11138313666" x="393080.40" y="5707567.64" z="0.00" type="priority" />
	<node id="11138313667" x="393107.34" y="5707567.95" z="0.00" type="priority" />
	<node id="11152096260" x="390672.76" y="5709431.44" z="0.00" type="priority" />
	<node id="11152096261" x="390653.67" y="5709430.33" z="0.00" type="priority" />
	<node id="11152096262" x="390652.29" y="5709446.09" z="0.00" type="traffic_light" />
	<node id="11152096263" x="390642.05" y="5709429.51" z="0.00" type="traffic_light" />
	<node id="11159840379" x="392494.81" y="5709233.73" z="0.00" type="traffic_light" />
	<node id="11159840380" x="392487.07" y="5709218.49" z="0.00" type="traffic_light" />
	<node id="11160178134" x="392801.87" y="5709257.04" z="0.00" type="priority" />
	<node id="11174943070" x="390272.85" y="5710185.85" z="0.00" type="traffic_light" />
	<node id="11174943071" x="390254.35" y="5710216.83" z="0.00" type="traffic_light" />
	<node id="11174943072" x="390279.80" y="5710206.66" z="0.00" type="traffic_light" />
	<node id="11174943075" x="390306.13" y="5710130.57" z="0.00" type="traffic_light" />
	<node id="11174943076" x="390304.03" y="5710111.67" z="0.00" type="traffic_light" />
	<node id="11174943077" x="390353.74" y="5710087.22" z="0.00" type="traffic_light" />
	<node id="11184025111" x="390204.64" y="5710462.21" z="0.00" type="traffic_light" />
	<node id="11184025114" x="390192.58" y="5710435.19" z="0.00" type="traffic_light" />
	<node id="11201403587" x="390885.58" y="5707907.23" z="0.00" type="traffic_light" />
	<node id="11237476000" x="393034.20" y="5706908.12" z="0.00" type="priority" />
	<node id="11240467328" x="393477.29" y="5709800.07" z="0.00" type="priority" />
	<node id="11261177446" x="395678.41" y="5705991.29" z="0.00" type="priority" />
	<node id="11307573231" x="396933.78" y="5709967.54" z="0.00" type="priority" />
	<node id="11320851069" x="395691.33" y="5705914.88" z="0.00" type="priority" />
	<node id="11342828804" x="391939.43" y="5709208.92" z="0.00" type="traffic_light" />
	<node id="11342828805" x="391961.31" y="5709191.98" z="0.00" type="traffic_light" />
	<node id="11356395202" x="393999.39" y="5706856.22" z="0.00" type="priority" />
	<node id="11365994020" x="394078.32" y="5708694.92" z="0.00" type="priority" />
	<node id="1140089412" x="394095.59" y="5708859.84" z="0.00" type="traffic_light" />
	<node id="11414401151" x="393615.45" y="5710311.89" z="0.00" type="priority" />
	<node id="11414401152" x="393616.63" y="5710316.02" z="0.00" type="priority" />
	<node id="11414401153" x="393618.65" y="5710323.12" z="0.00" type="priority" />
	<node id="11414401154" x="393620.63" y="5710330.09" z="0.00" type="priority" />
	<node id="11414565561" x="392913.81" y="5710221.66" z="0.00" type="priority" />
	<node id="11419666029" x="390832.71" y="5708760.70" z="0.00" type="traffic_light" />
	<node id="11419666033" x="390837.32" y="5708746.56" z="0.00" type="priority" />
	<node id="11419666034" x="390826.59" y="5708741.03" z="0.00" type="priority" />
	<node id="11419666040" x="390825.51" y="5708729.99" z="0.00" type="traffic_light" />
	<node id="11434690188" x="392656.47" y="5709218.24" z="0.00" type="priority" />
	<node id="11436632218" x="392682.24" y="5708706.44" z="0.00" type="traffic_light" />
	<node id="11436632219" x="392704.50" y="5708690.07" z="0.00" type="traffic_light" />
	<node id="11436632220" x="392699.04" y="5708737.11" z="0.00" type="traffic_light" />
	<node id="11436632221" x="392719.96" y="5708719.97" z="0.00" type="traffic_light" />
	<node id="11490100089" x="393875.51" y="5709075.97" z="0.00" type="traffic_light" />
	<node id="11490100090" x="393892.00" y="5709066.86" z="0.00" type="traffic_light" />
	<node id="11490100093" x="393863.34" y="5708988.86" z="0.00" type="traffic_light" />
	<node id="11490100094" x="393878.26" y="5708978.69" z="0.00" type="traffic_light" />
	<node id="11517719903" x="394035.75" y="5709047.70" z="0.00" type="priority" />
	<node id="11517719904" x="394023.70" y="5709058.55" z="0.00" type="priority" />
	<node id="11517719905" x="393985.46" y="5709049.53" z="0.00" type="priority" />
	<node id="11560806132" x="392930.69" y="5710085.55" z="0.00" type="traffic_light" />
	<node id="11560806133" x="392948.52" y="5710086.12" z="0.00" type="traffic_light" />
	<node id="11560910453" x="392929.22" y="5710193.63" z="0.00" type="traffic_light" />
	<node id="11560910454" x="392900.74" y="5710239.66" z="0.00" type="traffic_light" />
	<node id="11615971367" x="395994.59" y="5705906.59" z="0.00" type="priority" />
	<node id="11615971368" x="396008.71" y="5705904.09" z="0.00" type="priority" />
	<node id="11663446765" x="393225.38" y="5709722.67" z="0.00" type="traffic_light" />
	<node id="11663446766" x="393232.20" y="5709731.20" z="0.00" type="traffic_light" />
	<node id="11663490792" x="393265.75" y="5709731.69" z="0.00" type="traffic_light" />
	<node id="11664598076" x="390237.82" y="5710115.47" z="0.00" type="priority" />
	<node id="11716532723" x="393202.06" y="5709478.14" z="0.00" type="traffic_light" />
	<node id="11716532724" x="393157.56" y="5709477.63" z="0.00" type="traffic_light" />
	<node id="11716532725" x="393173.74" y="5709496.13" z="0.00" type="traffic_light" />
	<node id="11716532726" x="393185.69" y="5709460.26" z="0.00" type="traffic_light" />
	<node id="11735181625" x="394181.30" y="5707311.29" z="0.00" type="traffic_light" />
	<node id="11735181628" x="394165.39" y="5707138.37" z="0.00" type="traffic_light" />
	<node id="11735181630" x="394133.00" y="5707133.11" z="0.00" type="traffic_light" />
	<node id="11735181631" x="394172.45" y="5707108.23" z="0.00" type="traffic_light" />
	<node id="11735181632" x="394183.72" y="5707110.82" z="0.00" type="traffic_light" />
	<node id="11767365207" x="393567.61" y="5707253.33" z="0.00" type="priority" />
	<node id="11778283083" x="393935.60" y="5707271.41" z="0.00" type="priority" />
	<node id="11778320101" x="393989.74" y="5707270.75" z="0.00" type="priority" />
	<node id="11778320102" x="394049.47" y="5707215.19" z="0.00" type="priority" />
	<node id="11783437389" x="393931.09" y="5707323.95" z="0.00" type="priority" />
	<node id="11783437925" x="393847.87" y="5707407.09" z="0.00" type="priority" />
	<node id="11783490433" x="394167.57" y="5707177.11" z="0.00" type="priority" />
	<node id="11783527209" x="394349.65" y="5707025.08" z="0.00" type="priority" />
	<node id="11783578581" x="394091.91" y="5706937.80" z="0.00" type="priority" />