<connections>
	<connection from="1300352328_12044331839_12044331837" to="1300352328_12044331837_12044331839" />
	<connection from="1300352328_12044331839_12044331837" to="542662642_12044331837_21694274" />
	<connection from="402119853_396527826_672997757" to="629487701_672997757_583321404" />
	<connection from="970313522_9915303260_296356110" to="970313522_296356110_671243559" />
	<connection from="970313522_9915303260_296356110" to="970313522_296356110_9915303260" />
	<connection from="970313522_9915303260_296356110" to="27774529_296356110_296356108" />
	<connection from="1283776059_255166166_715860277" to="1283776059_715860277_255166166" />
	<connection from="1283776059_255166166_715860277" to="17983654_715860277_252213432" />
	<connection from="1283776059_255166166_715860277" to="17983654_715860277_255166165" />
	<connection from="1131431733_10547876497_25292341" to="4236588_25292341_10547876495" />
	<connection from="1131431733_10547876497_25292341" to="377779190_25292341_10547876496" />
	<connection from="1131431733_10547876497_25292341" to="1131431726_25292341_306977776" />
	<connection from="1131431733_10547876497_25292341" to="880308261_25292341_9248202078" />
	<connection from="1268191584_186143801_6543384589" to="1268191584_6543384589_186143801" />
	<connection from="1268191584_186143801_6543384589" to="316256635_6543384589_255165505" />
	<connection from="1268721205_5718654243_674799109" to="95781113_674799109_247645595" />
	<connection from="1268825168_272478833_11784584997" to="29053479_11784584997_11784616098" />
	<connection from="1268825168_272478833_11784584997" to="1268825168_11784584997_272478833" />
	<connection from="30134195_8397125391_503561589" to="41215071_503561589_283102080" />
	<connection from="30134195_8397125391_503561589" to="30134195_503561589_8397125391" />
	<connection from="30134195_8397125391_503561589" to="30134194_503561589_259024850" />
	<connection from="377443028_681320359_274818989" to="377443028_274818989_681320359" />
	<connection from="377443028_681320359_274818989" to="25204683_274818989_274819491" />
	<connection from="377443028_681320359_274818989" to="377443028_274818989_690534683" />
	<connection from="26753193_25435963_186131844" to="26638236_186131844_186131827" />
	<connection from="26753193_25435963_186131844" to="47193063_186131844_293013098" />
	<connection from="26753193_25435963_186131844" to="26753193_186131844_25435963" />
	<connection from="26753193_25435963_186131844" to="26716492_186131844_682383244" />
	<connection from="1084094680_2261837597_9934339311" to="1084094675_9934339311_9934402319" />
	<connection from="1084094680_2261837597_9934339311" to="1084094684_9934339311_25392739" />
	<connection from="1084094680_2261837597_9934339311" to="23652273_9934339311_9934402336" />
	<connection from="31113238_345798622_345798620" to="31113240_345798620_25292367" />
	<connection from="31113238_345798622_345798620" to="31113240_345798620_702703524" />
	<connection from="31113238_345798622_345798620" to="31113238_345798620_345798622" />
	<connection from="23559161_246677716_255115226" to="23559161_255115226_246673989" />
	<connection from="23559161_246677716_255115226" to="23559161_255115226_246677716" />
	<connection from="23559161_246677716_255115226" to="23559162_255115226_255111059" />
	<connection from="25075436_246689620_245446874" to="25075436_245446874_246689620" />
	<connection from="25075436_246689620_245446874" to="23719829_245446874_256862526" />
	<connection from="25075436_246689620_245446874" to="22815030_245446874_78535914" />
	<connection from="23341437_252745507_252745527" to="23364505_252745527_3275298730" />
	<connection from="23341437_252745507_252745527" to="23341437_252745527_252745507" />
	<connection from="23341437_252745507_252745527" to="23364505_252745527_252743020" />
	<connection from="26489242_271872660_271872657" to="25008086_271872657_274092311" />
	<connection from="26489242_271872660_271872657" to="1042609255_271872657_274092126" />
	<connection from="26489242_271872660_271872657" to="26489242_271872657_271872660" />
	<connection from="53223668_245447187_245447185" to="53223678_245447185_673646538" />
	<connection from="53223668_245447187_245447185" to="53223668_245447185_245447187" />
	<connection from="24250107_306977325_306976811" to="24250107_306976811_306977325" />
	<connection from="24250107_306977325_306976811" to="27950242_306976811_306976994" />
	<connection from="24250107_306977325_306976811" to="24250107_306976811_262549978" />
	<connection from="470667533_485757866_274817320" to="163507923_274817320_274817323" />
	<connection from="470667533_485757866_274817320" to="886482310_274817320_3233292706" />
	<connection from="470667533_485757866_274817320" to="470667533_274817320_485757866" />
	<connection from="1272077364_11812480781_321693263" to="44847063_321693263_752870402" />
	<connection from="1272077364_11812480781_321693263" to="1272077364_321693263_11812480781" />
	<connection from="955647940_8844532544_8844481391" to="29090545_8844481391_21451558" />
	<connection from="955647940_8844532544_8844481391" to="955647940_8844481391_8844532544" />
	<connection from="46848292_78536133_685965573" to="46848292_685965573_78536133" />
	<connection from="46848292_78536133_685965573" to="955647940_685965573_8844532544" />
	<connection from="46848292_78536133_685965573" to="4071022_685965573_21453747" />
	<connection from="23897781_280394329_259025243" to="23897781_259025243_280394388" />
	<connection from="23897781_280394329_259025243" to="23897781_259025243_280394329" />
	<connection from="23897781_280394329_259025243" to="23897778_259025243_670208545" />
	<connection from="212785457_25897680_246065148" to="317117572_246065148_683494782" />
	<connection from="33181285_149010617_249470050" to="537403961_249470050_149010615" />
	<connection from="33181285_149010617_249470050" to="23757702_249470050_257402113" />
	<connection from="748681437_130116069_6875154212" to="748681437_6875154212_130116069" />
	<connection from="748681437_130116069_6875154212" to="1192511649_6875154212_11070111747" />
	<connection from="24960028_271227803_272504530" to="25049147_272504530_272504531" />
	<connection from="24960028_271227803_272504530" to="24960028_272504530_10798568943" />
	<connection from="32996317_285993463_371727967" to="32996317_371727967_285993463" />
	<connection from="32996317_285993463_371727967" to="32996312_371727967_371727959" />
	<connection from="1276720101_11853799163_3223706761" to="1329565760_3223706761_529441439" />
	<connection from="29250945_321693258_6876095060" to="29250945_6876095060_686772020" />
	<connection from="200760564_8459288908_249470004" to="26489363_249470004_252980750" />
	<connection from="200760564_8459288908_249470004" to="23757710_249470004_257402118" />
	<connection from="200760564_8459288908_249470004" to="200760564_249470004_8459288908" />
	<connection from="53065915_21656240_252945006" to="53065915_252945006_21656240" />
	<connection from="53065915_21656240_252945006" to="53353063_252945006_674739775" />
	<connection from="53065915_21656240_252945006" to="55482836_252945006_21694379" />
	<connection from="1174282106_10911355175_3005712104" to="627794522_3005712104_25435702" />
	<connection from="24279349_252470464_11240467328" to="24279349_11240467328_252470863" />
	<connection from="24279349_252470464_11240467328" to="24279349_11240467328_252470464" />
	<connection from="24279349_252470464_11240467328" to="1213220663_11240467328_301330663" />
	<connection from="23558717_255111065_255111060" to="816949545_255111060_401622350" />
	<connection from="23558717_255111065_255111060" to="23558717_255111060_255111065" />
	<connection from="23558717_255111065_255111060" to="37756747_255111060_442910548" />
	<connection from="542665954_6528518864_257402913" to="286761870_257402913_179620648" />
	<connection from="22735987_479293735_672928861" to="22735987_672928861_288718862" />
	<connection from="30977085_428249521_274810860" to="30977085_274810860_274805181" />
	<connection from="30977085_428249521_274810860" to="30977085_274810860_428249521" />
	<connection from="30977085_428249521_274810860" to="27775861_274810860_679949953" />
	<connection from="34582315_252980411_401440109" to="34582315_401440109_252980411" />
	<connection from="27773226_8424218510_252470629" to="27773226_252470629_8424218510" />
	<connection from="27773226_8424218510_252470629" to="23317877_252470629_252470643" />
	<connection from="27773226_8424218510_252470629" to="1079210311_252470629_9864357425" />
	<connection from="27773226_8424218510_252470629" to="23317877_252470629_252470464" />
	<connection from="32728568_262549919_262549922" to="24250105_262549922_262549923" />
	<connection from="32728568_262549919_262549922" to="32728568_262549922_262549921" />
	<connection from="32728568_262549919_262549922" to="32728568_262549922_262549919" />
	<connection from="32728344_306976483_703397656" to="32728344_703397656_272522248" />
	<connection from="32728344_306976483_703397656" to="56036432_703397656_703397632" />
	<connection from="37756752_259222347_252747966" to="37756752_252747966_259222347" />
	<connection from="37756752_259222347_252747966" to="1285493228_252747966_273099466" />
	<connection from="37756752_259222347_252747966" to="1285493228_252747966_246693291" />
	<connection from="60442240_733847080_252216055" to="60442240_252216055_733847080" />
	<connection from="60442240_733847080_252216055" to="1168334486_252216055_321693285" />
	<connection from="4084698_21694124_6246753160" to="4084698_6246753160_21696820" />
	<connection from="4084698_21694124_6246753160" to="334696074_6246753160_3417562411" />
	<connection from="25202560_274799462_274799444" to="25202560_274799444_274799462" />
	<connection from="629487719_10764877613_670299924" to="1118676627_670299924_85875400" />
	<connection from="629487719_10764877613_670299924" to="629487719_670299924_10764877613" />
	<connection from="33181290_271872436_391000593" to="33181290_391000593_271872436" />
	<connection from="33181290_271872436_391000593" to="32029193_391000593_391001638" />
	<connection from="33181290_271872436_391000593" to="59541207_391000593_254092483" />
	<connection from="24250105_262549923_262549922" to="24250105_262549922_262549923" />
	<connection from="24250105_262549923_262549922" to="32728568_262549922_262549921" />
	<connection from="24250105_262549923_262549922" to="32728568_262549922_262549919" />
	<connection from="25968387_283297158_283297157" to="723262791_283297157_283297147" />
	<connection from="25968387_283297158_283297157" to="723262792_283297157_283297156" />
	<connection from="25968387_283297158_283297157" to="22974120_283297157_6516680616" />
	<connection from="1271541380_370575576_262551599" to="1272010771_262551599_370575575" />
	<connection from="1271541380_370575576_262551599" to="1271541380_262551599_370575576" />
	<connection from="1271541380_370575576_262551599" to="1271658949_262551599_11808982201" />
	<connection from="1075212609_9861283212_304947085" to="1332441330_304947085_304947084" />
	<connection from="1075212609_9861283212_304947085" to="1075212609_304947085_9861283212" />
	<connection from="1075212609_9861283212_304947085" to="27771701_304947085_306978751" />
	<connection from="23029042_729689857_248453903" to="23029042_248453903_729689857" />
	<connection from="23029042_729689857_248453903" to="23029041_248453903_248453907" />
	<connection from="23029042_729689857_248453903" to="23029041_248453903_248453901" />
	<connection from="60442241_752870417_752870395" to="60442239_752870395_752870493" />
	<connection from="60442241_752870417_752870395" to="60442241_752870395_130116063" />
	<connection from="47250331_179619375_10870835040" to="1169008502_10870835040_21656156" />
	<connection from="172322040_259024632_288719033" to="172322040_288719033_259024632" />
	<connection from="172322040_259024632_288719033" to="770525178_288719033_10704173560" />
	<connection from="29053480_272479607_11783578581" to="1268735689_11783578581_186143776" />
	<connection from="29053480_272479607_11783578581" to="29053480_11783578581_272479607" />
	<connection from="820378658_10774250934_21694244" to="4236594_21694244_179632320" />
	<connection from="820378658_10774250934_21694244" to="37519803_21694244_252937308" />
	<connection from="316256636_186143809_255165493" to="316256636_255165493_248453272" />
	<connection from="316256636_186143809_255165493" to="316256636_255165493_186143809" />
	<connection from="316256636_186143809_255165493" to="23564566_255165493_255165492" />
	<connection from="454381186_247652234_3994296558" to="31101541_3994296558_247652327" />
	<connection from="454381186_247652234_3994296558" to="454381186_3994296558_247652234" />
	<connection from="1268832025_11784639066_280091202" to="25609927_280091202_271380019" />
	<connection from="1268832025_11784639066_280091202" to="25609927_280091202_272479607" />
	<connection from="1268832025_11784639066_280091202" to="25689995_280091202_280091208" />
	<connection from="1268832025_11784639066_280091202" to="1268832025_280091202_11784639066" />
	<connection from="84506383_25419103_262549875" to="24250090_262549875_262549842" />
	<connection from="84506383_25419103_262549875" to="1201017116_262549875_6612110753" />
	<connection from="1298054983_9461965766_8844776502" to="955672672_8844776502_8844776501" />
	<connection from="1298054983_9461965766_8844776502" to="1298054983_8844776502_9461965766" />
	<connection from="42922001_34596350_34596347" to="42922001_34596347_34596350" />
	<connection from="42922001_34596350_34596347" to="72493018_34596347_262551596" />
	<connection from="42922001_34596350_34596347" to="42922002_34596347_672783897" />
	<connection from="42922001_34596350_34596347" to="629487709_34596347_25551301" />
	<connection from="1170387381_25435927_10879472677" to="52122320_10879472677_25435929" />
	<connection from="1285514053_691866095_691866124" to="1285514053_691866124_691866095" />
	<connection from="1285514053_691866095_691866124" to="26489347_691866124_463215715" />
	<connection from="1096441729_10040850617_5943294274" to="1096441729_5943294274_289353818" />
	<connection from="204812932_255167218_255167217" to="204812932_255167217_255167218" />
	<connection from="204812932_255167218_255167217" to="204812932_255167217_255167215" />
	<connection from="27741295_304622638_246693298" to="54358634_246693298_246282385" />
	<connection from="27741295_304622638_246693298" to="27741295_246693298_304622638" />
	<connection from="27741295_304622638_246693298" to="54358634_246693298_246693293" />
	<connection from="23341928_252749597_252749642" to="23341928_252749642_158710426" />
	<connection from="23341928_252749597_252749642" to="23341928_252749642_252749597" />
	<connection from="23341928_252749597_252749642" to="23341954_252749642_252749625" />
	<connection from="52890303_670439401_670444655" to="1140326913_670444655_670439390" />
	<connection from="1035898292_21451490_9544189595" to="22815554_9544189595_21451489" />
	<connection from="1035898292_21451490_9544189595" to="1035898292_9544189595_21451490" />
	<connection from="19839012_358310360_207313070" to="19839012_207313070_358310360" />
	<connection from="19839012_358310360_207313070" to="19838115_207313070_10538366190" />
	<connection from="25609927_271380019_280091202" to="25609927_280091202_271380019" />
	<connection from="25609927_271380019_280091202" to="25609927_280091202_272479607" />
	<connection from="25609927_271380019_280091202" to="25689995_280091202_280091208" />
	<connection from="25609927_271380019_280091202" to="1268832025_280091202_11784639066" />
	<connection from="891594038_1288999284_3246050495" to="59009855_3246050495_10032287843" />
	<connection from="53256817_673863651_707050231" to="53256817_707050231_673863651" />
	<connection from="17982194_285992665_371727959" to="32996312_371727959_371727967" />
	<connection from="17982194_285992665_371727959" to="17982194_371727959_285992665" />
	<connection from="286774329_21453752_252649116" to="286774327_252649116_78536087" />
	<connection from="286774329_21453752_252649116" to="286774328_252649116_252650286" />
	<connection from="548753619_252981174_298163317" to="548753619_298163317_252981174" />
	<connection from="548753619_252981174_298163317" to="548753619_298163317_720634442" />
	<connection from="53625440_102955291_102955296" to="11546708_102955296_102955299" />
	<connection from="32850415_370061658_445766000" to="37952808_445766000_445766006" />
	<connection from="39843440_261047832_674774156" to="30977049_674774156_766962071" />
	<connection from="39843440_261047832_674774156" to="39843440_674774156_261047832" />
	<connection from="40795288_21451516_261046496" to="22736712_261046496_285641543" />
	<connection from="40795288_21451516_261046496" to="40795288_261046496_21451516" />
	<connection from="40795288_21451516_261046496" to="31232186_261046496_261047840" />
	<connection from="40795288_21451516_261046496" to="30647248_261046496_309691428" />
	<connection from="1364014306_255167949_313021778" to="1283776063_313021778_313021776" />
	<connection from="1364014306_255167949_313021778" to="1364014306_313021778_255167949" />
	<connection from="1364014306_255167949_313021778" to="1364013789_313021778_255167950" />
	<connection from="1111162056_10167372417_290852253" to="32903764_290852253_256505858" />
	<connection from="1111162056_10167372417_290852253" to="1111162056_290852253_10167372417" />
	<connection from="36839147_428249518_428249519" to="36839147_428249519_428249518" />
	<connection from="36839147_428249518_428249519" to="30977085_428249519_428249521" />
	<connection from="36839147_428249518_428249519" to="30977085_428249519_274799462" />
	<connection from="1133034391_8994759566_10564090050" to="1133029899_10564090050_10564090032" />
	<connection from="1133034391_8994759566_10564090050" to="1133034391_10564090050_8994759566" />
	<connection from="25202560_274799444_274799462" to="25202564_274799462_274799476" />
	<connection from="25202560_274799444_274799462" to="25202560_274799462_274799444" />
	<connection from="25202560_274799444_274799462" to="30977085_274799462_428249519" />
	<connection from="770525174_10575833414_11138313667" to="770525174_11138313667_10575833414" />
	<connection from="770525174_10575833414_11138313667" to="1201352683_11138313667_11138313666" />
	<connection from="1225620638_304967827_11365994020" to="27774099_11365994020_304967825" />
	<connection from="1225620638_304967827_11365994020" to="1225620638_11365994020_304967827" />
	<connection from="858406447_6600863001_248623295" to="858406447_248623295_6600863001" />
	<connection from="858406447_6600863001_248623295" to="23043822_248623295_248623286" />
	<connection from="418380493_6188641323_4621825997" to="418380493_4621825997_6188641323" />
	<connection from="418380493_6188641323_4621825997" to="418380493_4621825997_10739350673" />
	<connection from="418380493_6188641323_4621825997" to="467577573_4621825997_4621825996" />
	<connection from="27379756_300562872_9166407343" to="27379756_9166407343_300562872" />
	<connection from="25150002_279107228_274092713" to="183393163_274092713_203047200" />
	<connection from="25150002_279107228_274092713" to="30133914_274092713_274091597" />
	<connection from="25150002_279107228_274092713" to="25150002_274092713_279107228" />
	<connection from="24279348_332073649_277580717" to="24279348_277580717_332073649" />
	<connection from="24279348_332073649_277580717" to="24279348_277580717_248798198" />
	<connection from="24279348_332073649_277580717" to="25473783_277580717_277580718" />
	<connection from="23897655_259023923_288719005" to="26537032_288719005_12608199128" />
	<connection from="23897655_259023923_288719005" to="153955574_288719005_288719003" />
	<connection from="23897655_259023923_288719005" to="23897655_288719005_259023923" />
	<connection from="27777922_305005408_179663224" to="335072215_179663224_685072287" />
	<connection from="27777922_305005408_179663224" to="27777922_179663224_305005408" />
	<connection from="27777922_305005408_179663224" to="17346544_179663224_249470057" />
	<connection from="23332581_252651300_252651297" to="305952631_252651297_3106564318" />
	<connection from="23332581_252651300_252651297" to="23332581_252651297_252651300" />
	<connection from="23332581_252651300_252651297" to="31956209_252651297_6421438208" />
	<connection from="25150002_274091593_279107228" to="25150002_279107228_274092713" />
	<connection from="25150002_274091593_279107228" to="25150002_279107228_274091593" />
	<connection from="25150002_274091593_279107228" to="25606994_279107228_279107225" />
	<connection from="47312802_252747113_34596384" to="1298770491_34596384_10205505486" />
	<connection from="627794522_3005712104_25435702" to="4290117_25435702_10911355168" />
	<connection from="25050793_272521893_670117073" to="25050793_670117073_272521893" />
	<connection from="25050793_272521893_670117073" to="24250090_670117073_272520880" />
	<connection from="25050793_272521893_670117073" to="24250090_670117073_262549882" />
	<connection from="27777590_305003669_305003670" to="27777590_305003670_305003669" />
	<connection from="25204439_274817604_274817457" to="108155747_274817457_272772263" />
	<connection from="25204439_274817604_274817457" to="496747106_274817457_186145688" />
	<connection from="25204439_274817604_274817457" to="25204439_274817457_274817604" />
	<connection from="25204439_274817604_274817457" to="886482300_274817457_274817456" />
	<connection from="62645707_155227742_155227729" to="62645707_155227729_155227742" />
	<connection from="62645707_155227742_155227729" to="15558241_155227729_155227742" />
	<connection from="62645707_155227742_155227729" to="62645707_155227729_152785446" />
	<connection from="970313521_9915303263_730728899" to="953025939_730728899_296356130" />
	<connection from="970313521_9915303263_730728899" to="970313521_730728899_9915303263" />
	<connection from="37519793_676780818_257402825" to="23757817_257402825_439200301" />
	<connection from="828798887_2725983830_485768842" to="828798887_485768842_2725983830" />
	<connection from="828798887_2725983830_485768842" to="28812281_485768842_316775003" />
	<connection from="1137829607_10606070333_164367" to="1137829607_164367_10606070333" />
	<connection from="1137829607_10606070333_164367" to="39300879_164367_148283370" />
	<connection from="227028025_6960736182_332073649" to="24279348_332073649_277580717" />
	<connection from="227028025_6960736182_332073649" to="227028025_332073649_6960736182" />
	<connection from="23027975_256240893_256240891" to="23027975_256240891_256240893" />
	<connection from="23027975_256240893_256240891" to="23652015_256240891_256240573" />
	<connection from="23027975_256240893_256240891" to="23652015_256240891_256240892" />
	<connection from="23027975_256240893_256240891" to="23027975_256240891_256241496" />
	<connection from="42828428_6876095059_535772403" to="42866234_535772403_11261177446" />
	<connection from="23027996_245446872_672406190" to="23481842_672406190_254297404" />
	<connection from="23027996_245446872_672406190" to="23027996_672406190_245446872" />
	<connection from="23027996_245446872_672406190" to="23027996_672406190_1750772145" />
	<connection from="23300975_252216471_252217070" to="23300975_252217070_252216471" />
	<connection from="23300975_252216471_252217070" to="23300975_252217070_252217069" />
	<connection from="23300975_252216471_252217070" to="165010834_252217070_282686313" />
	<connection from="4084698_6246753160_21696820" to="8327311_21696820_10177597714" />
	<connection from="4084698_6246753160_21696820" to="1112432526_21696820_10177681520" />
	<connection from="23843255_259223872_258369517" to="23843231_258369517_149383172" />
	<connection from="23843255_259223872_258369517" to="23843255_258369517_259223872" />
	<connection from="30148027_283297184_6528518874" to="30148027_6528518874_283297184" />
	<connection from="30148027_283297184_6528518874" to="30148027_6528518874_9705880745" />
	<connection from="60212944_10879231026_10879241311" to="1170354189_10879241311_243892365" />
	<connection from="42313098_445769067_6600863001" to="42313098_6600863001_445769067" />
	<connection from="42313098_445769067_6600863001" to="858406447_6600863001_248623295" />
	<connection from="30850291_9934339306_392666884" to="318129574_392666884_9934638525" />
	<connection from="25050962_703397650_272522371" to="25050869_272522371_6612110751" />
	<connection from="53137993_672528607_7177913267" to="768891531_7177913267_672526218" />
	<connection from="1271658949_11808982201_262551599" to="1272010771_262551599_370575575" />
	<connection from="1271658949_11808982201_262551599" to="1271541380_262551599_370575576" />
	<connection from="1271658949_11808982201_262551599" to="1271658949_262551599_11808982201" />
	<connection from="542662642_12044331837_21694274" to="1170951730_21694274_10881226686" />
	<connection from="25129136_186114437_6102988408" to="650604993_6102988408_256862528" />
	<connection from="25129136_186114437_6102988408" to="25129136_6102988408_186114437" />
	<connection from="286761866_334274137_729528151" to="286761866_729528151_334274137" />
	<connection from="286761866_334274137_729528151" to="28706884_729528151_252214527" />
	<connection from="22973895_248453907_247646233" to="22973895_247646233_248453907" />
	<connection from="22973895_248453907_247646233" to="1268715239_247646233_255165502" />
	<connection from="160675685_25897680_246064590" to="160675685_246064590_3233493934" />
	<connection from="26800860_294005469_294005467" to="820380835_294005467_279217992" />
	<connection from="26800860_294005469_294005467" to="26800860_294005467_294005469" />
	<connection from="25968392_283297167_671428192" to="25968392_671428192_283297167" />
	<connection from="25968392_283297167_671428192" to="25968392_671428192_283297171" />
	<connection from="27508330_289353822_289353820" to="26410455_289353820_289353818" />
	<connection from="27508330_289353822_289353820" to="27508330_289353820_289353822" />
	<connection from="23843255_259223872_258369522" to="23843262_258369522_258369526" />
	<connection from="23843255_259223872_258369522" to="23843255_258369522_259223872" />
	<connection from="627794521_2225959459_3005712102" to="296765523_3005712102_10911425405" />
	<connection from="23317833_252469655_280526418" to="23317833_280526418_252469655" />
	<connection from="23317833_252469655_280526418" to="1155453554_280526418_156311625" />
	<connection from="37756747_442910548_255111060" to="816949545_255111060_401622350" />
	<connection from="37756747_442910548_255111060" to="23558717_255111060_255111065" />
	<connection from="37756747_442910548_255111060" to="37756747_255111060_442910548" />
	<connection from="1169947283_10878185059_10606370705" to="1169947283_10606370705_338913756" />
	<connection from="31523530_9679511375_252982144" to="930198128_252982144_252982145" />
	<connection from="31523530_9679511375_252982144" to="31523530_252982144_9679511375" />
	<connection from="31523530_9679511375_252982144" to="930198128_252982144_252982143" />
	<connection from="31523530_9679511375_252982144" to="31523441_252982144_352780972" />
	<connection from="29052849_252213908_280091262" to="29052849_280091262_252213908" />
	<connection from="29052849_252213908_280091262" to="72493025_280091262_272477755" />
	<connection from="29052849_252213908_280091262" to="72493025_280091262_271380077" />
	<connection from="27592702_302985160_302985214" to="27592702_302985214_302985160" />
	<connection from="27592702_302985160_302985214" to="27592411_302985214_302985134" />
	<connection from="27592702_302985160_302985214" to="27592411_302985214_302985213" />
	<connection from="32728681_280430758_272510383" to="32728681_272510383_280430758" />
	<connection from="32728681_280430758_272510383" to="26268128_272510383_259025271" />
	<connection from="15674857_11663446766_21694584" to="56036442_21694584_156311625" />
	<connection from="880930223_8193490177_272024266" to="749845666_272024266_319558775" />
	<connection from="880930223_8193490177_272024266" to="25020319_272024266_9742515217" />
	<connection from="880930223_8193490177_272024266" to="880930223_272024266_8193490177" />
	<connection from="880930223_8193490177_272024266" to="58873016_272024266_697482567" />
	<connection from="52985977_301339547_683435272" to="35772493_683435272_240133999" />
	<connection from="52985977_301339547_683435272" to="52985977_683435272_301339547" />
	<connection from="1268830863_186143764_271380114" to="25046250_271380114_252213906" />
	<connection from="1268830863_186143764_271380114" to="24974461_271380114_271380111" />
	<connection from="1268830863_186143764_271380114" to="1268830579_271380114_272477554" />
	<connection from="1268830863_186143764_271380114" to="1268830863_271380114_186143764" />
	<connection from="23027937_256218790_248426076" to="23027937_248426076_256218790" />
	<connection from="23027937_256218790_248426076" to="44847110_248426076_203022312" />
	<connection from="23027937_256218790_248426076" to="23027975_248426076_249147437" />
	<connection from="1170590340_10880851528_245939612" to="44499516_245939612_21656240" />
	<connection from="32850534_1676284902_1676284883" to="42290724_1676284883_1676284910" />
	<connection from="32850534_1676284902_1676284883" to="160821056_1676284883_2606863067" />
	<connection from="24964672_305003669_271282837" to="24964672_271282837_305003669" />
	<connection from="24964672_305003669_271282837" to="25042064_271282837_271283100" />
	<connection from="19839012_207313070_358310360" to="19839012_358310360_207313070" />
	<connection from="19839012_207313070_358310360" to="19839012_358310360_317148294" />
	<connection from="19839012_207313070_358310360" to="54360802_358310360_685099025" />
	<connection from="220520559_1722252317_11876393431" to="220520559_11876393431_247437722" />