<edges>
	<edge id="1300352328_12044331839_12044331837" from="12044331839" to="12044331837" numLanes="1" shape="393474.61,5708505.41,0.00 393472.85,5708508.04,0.00 393471.67,5708509.80,0.00 393467.11,5708516.60,0.00" speed="8.33" />
	<edge id="402119853_396527826_672997757" from="396527826" to="672997757" numLanes="2" shape="392444.70,5706493.16,0.00 392453.95,5706504.73,0.00 392464.75,5706515.95,0.00 392474.21,5706524.35,0.00" speed="13.89" />
	<edge id="970313522_9915303260_296356110" from="9915303260" to="296356110" numLanes="1" shape="394408.06,5708150.64,0.00 394416.43,5708200.38,0.00" speed="8.33" />
	<edge id="1283776059_255166166_715860277" from="255166166" to="715860277" numLanes="1" shape="393166.46,5706658.40,0.00 393154.02,5706833.72,0.00 393153.10,5706842.44,0.00" speed="8.33" />
	<edge id="1131431733_10547876497_25292341" from="10547876497" to="25292341" numLanes="2" shape="392565.64,5710147.56,0.00 392565.14,5710153.09,0.00 392563.96,5710161.18,0.00 392560.36,5710167.93,0.00" speed="13.89" />
	<edge id="1268191584_186143801_6543384589" from="186143801" to="6543384589" numLanes="1" shape="393605.41,5707138.24,0.00 393580.16,5707131.93,0.00 393556.27,5707125.97,0.00 393554.07,5707125.43,0.00 393547.97,5707123.96,0.00" speed="8.33" />
	<edge id="1268721205_5718654243_674799109" from="5718654243" to="674799109" numLanes="1" shape="394181.44,5707118.99,0.00 394180.81,5707123.20,0.00 394178.32,5707144.55,0.00" speed="13.89" />
	<edge id="1268825168_272478833_11784584997" from="272478833" to="11784584997" numLanes="1" shape="393930.65,5706985.28,0.00 393918.67,5707018.64,0.00 393917.30,5707024.19,0.00" speed="8.33" />
	<edge id="30134195_8397125391_503561589" from="8397125391" to="503561589" numLanes="1" shape="392525.88,5707958.79,0.00 392558.54,5707927.32,0.00 392563.52,5707922.62,0.00" speed="8.33" />
	<edge id="377443028_681320359_274818989" from="681320359" to="274818989" numLanes="1" shape="394480.33,5709209.46,0.00 394447.11,5709065.39,0.00" speed="8.33" />
	<edge id="26753193_25435963_186131844" from="25435963" to="186131844" numLanes="1" shape="395944.13,5706904.88,0.00 395942.71,5706899.06,0.00 395939.16,5706884.49,0.00 395934.61,5706858.72,0.00 395933.34,5706849.26,0.00 395930.18,5706825.71,0.00 395923.77,5706781.97,0.00" speed="8.33" />
	<edge id="1084094680_2261837597_9934339311" from="2261837597" to="9934339311" numLanes="3" shape="392496.06,5707968.68,0.00 392495.29,5707973.59,0.00 392495.02,5707975.38,0.00 392494.33,5707980.16,0.00" speed="13.89" />
	<edge id="31113238_345798622_345798620" from="345798622" to="345798620" numLanes="1" shape="393896.60,5710671.63,0.00 393897.08,5710659.32,0.00 393898.17,5710633.49,0.00 393898.48,5710626.01,0.00 393901.33,5710558.11,0.00 393902.00,5710540.06,0.00 393903.73,5710498.97,0.00 393905.57,5710455.63,0.00 393905.86,5710448.15,0.00" speed="13.89" />
	<edge id="23559161_246677716_255115226" from="246677716" to="255115226" numLanes="1" shape="395421.30,5707841.33,0.00 395354.17,5707838.11,0.00 395353.21,5707838.06,0.00" speed="8.33" />
	<edge id="25075436_246689620_245446874" from="246689620" to="245446874" numLanes="1" shape="390678.52,5707364.58,0.00 390543.92,5707312.66,0.00" speed="8.33" />
	<edge id="23341437_252745507_252745527" from="252745507" to="252745527" numLanes="1" shape="396257.49,5707890.47,0.00 396256.66,5707821.55,0.00 396257.02,5707813.74,0.00 396259.49,5707778.87,0.00 396263.19,5707755.20,0.00 396269.05,5707733.74,0.00" speed="8.33" />
	<edge id="26489242_271872660_271872657" from="271872660" to="271872657" numLanes="1" shape="396047.27,5707227.86,0.00 395996.04,5707066.54,0.00 395954.63,5707079.68,0.00 395899.80,5707097.14,0.00" speed="8.33" />
	<edge id="53223668_245447187_245447185" from="245447187" to="245447185" numLanes="1" shape="390903.59,5707429.08,0.00 390901.81,5707446.01,0.00 390901.78,5707459.56,0.00 390903.43,5707469.12,0.00 390907.14,5707478.03,0.00" speed="8.33" />
	<edge id="24250107_306977325_306976811" from="306977325" to="306976811" numLanes="1" shape="392705.83,5709924.32,0.00 392657.81,5709918.65,0.00" speed="8.33" />
	<edge id="470667533_485757866_274817320" from="485757866" to="274817320" numLanes="2" shape="394291.21,5709328.15,0.00 394322.27,5709316.88,0.00" speed="8.33" />
	<edge id="1272077364_11812480781_321693263" from="11812480781" to="321693263" numLanes="1" shape="395120.25,5706248.99,0.00 395112.94,5706239.26,0.00 395109.10,5706234.14,0.00" speed="8.33" />
	<edge id="955647940_8844532544_8844481391" from="8844532544" to="8844481391" numLanes="1" shape="390446.92,5709909.14,0.00 390430.84,5709895.38,0.00 390423.33,5709887.72,0.00" speed="8.33" />
	<edge id="46848292_78536133_685965573" from="78536133" to="685965573" numLanes="1" shape="390471.79,5709931.03,0.00 390464.42,5709924.79,0.00 390461.64,5709922.43,0.00 390454.73,5709916.58,0.00" speed="13.89" />
	<edge id="23897781_280394329_259025243" from="280394329" to="259025243" numLanes="1" shape="392449.38,5708945.38,0.00 392468.88,5708946.92,0.00 392512.40,5708950.58,0.00 392516.93,5708950.97,0.00" speed="8.33" />
	<edge id="212785457_25897680_246065148" from="25897680" to="246065148" numLanes="3" shape="392254.04,5706139.66,0.00 392257.47,5706132.86,0.00 392263.70,5706122.01,0.00" speed="8.33" />
	<edge id="33181285_149010617_249470050" from="149010617" to="249470050" numLanes="2" shape="396408.61,5708256.06,0.00 396392.31,5708254.49,0.00 396378.11,5708254.36,0.00 396367.38,5708254.36,0.00 396345.98,5708255.91,0.00 396336.92,5708256.57,0.00 396308.87,5708260.95,0.00 396281.93,5708263.72,0.00 396273.75,5708262.26,0.00 396264.37,5708260.57,0.00" speed="13.89" />
	<edge id="748681437_130116069_6875154212" from="130116069" to="6875154212" numLanes="1" shape="395987.01,5705704.69,0.00 395983.30,5705703.37,0.00 395973.99,5705699.46,0.00" speed="8.33" />
	<edge id="24960028_271227803_272504530" from="271227803" to="272504530" numLanes="2" shape="394927.41,5706688.38,0.00 394913.44,5706689.37,0.00 394908.11,5706691.41,0.00 394902.48,5706695.51,0.00 394887.66,5706711.10,0.00 394865.67,5706734.25,0.00 394854.86,5706745.45,0.00 394835.80,5706765.22,0.00" speed="8.33" />
	<edge id="32996317_285993463_371727967" from="285993463" to="371727967" numLanes="1" shape="396284.39,5706616.20,0.00 396297.89,5706624.61,0.00" speed="8.33" />
	<edge id="1276720101_11853799163_3223706761" from="11853799163" to="3223706761" numLanes="2" shape="394303.57,5706478.47,0.00 394315.73,5706481.80,0.00 394351.05,5706491.78,0.00 394388.80,5706501.63,0.00 394463.99,5706518.88,0.00 394502.23,5706527.29,0.00" speed="13.89" />
	<edge id="29250945_321693258_6876095060" from="321693258" to="6876095060" numLanes="3" shape="395671.73,5705817.63,0.00 395687.58,5705821.63,0.00 395699.04,5705824.88,0.00 395706.47,5705827.49,0.00" speed="8.33" />
	<edge id="200760564_8459288908_249470004" from="8459288908" to="249470004" numLanes="2" shape="396746.85,5708496.82,0.00 396740.98,5708490.09,0.00 396723.08,5708468.43,0.00 396711.31,5708454.37,0.00 396707.18,5708449.42,0.00 396691.94,5708431.20,0.00 396684.98,5708422.90,0.00 396670.15,5708405.22,0.00 396659.17,5708392.13,0.00 396648.25,5708379.55,0.00 396636.15,5708365.62,0.00" speed="13.89" />
	<edge id="53065915_21656240_252945006" from="21656240" to="252945006" numLanes="1" shape="392833.69,5708163.82,0.00 392839.38,5708164.48,0.00 392842.40,5708164.92,0.00 392849.47,5708165.94,0.00 392851.30,5708166.20,0.00 392944.79,5708184.95,0.00 392953.14,5708186.52,0.00 392963.97,5708188.56,0.00 392988.04,5708193.11,0.00 392995.42,5708194.50,0.00" speed="8.33" />
	<edge id="1174282106_10911355175_3005712104" from="10911355175" to="3005712104" numLanes="4" shape="392456.84,5706326.92,0.00 392438.21,5706325.90,0.00 392424.41,5706324.49,0.00" speed="13.89" />
	<edge id="24279349_252470464_11240467328" from="252470464" to="11240467328" numLanes="1" shape="393441.95,5709670.82,0.00 393457.20,5709724.83,0.00 393473.48,5709785.63,0.00 393477.29,5709800.07,0.00" speed="8.33" />
	<edge id="23558717_255111065_255111060" from="255111065" to="255111060" numLanes="1" shape="395483.69,5707843.78,0.00 395488.54,5707943.38,0.00 395490.62,5707946.64,0.00 395495.53,5707948.47,0.00" speed="8.33" />
	<edge id="542665954_6528518864_257402913" from="6528518864" to="257402913" numLanes="4" shape="394044.41,5708183.03,0.00 394044.80,5708186.50,0.00 394045.38,5708193.55,0.00 394045.68,5708198.10,0.00" speed="13.89" />
	<edge id="22735987_479293735_672928861" from="479293735" to="672928861" numLanes="2" shape="392499.66,5707412.76,0.00 392504.25,5707415.42,0.00" speed="8.33" />
	<edge id="30977085_428249521_274810860" from="428249521" to="274810860" numLanes="1" shape="390425.52,5709318.09,0.00 390450.77,5709303.08,0.00 390468.79,5709297.24,0.00 390488.80,5709295.38,0.00 390503.00,5709297.69,0.00 390515.91,5709301.63,0.00 390530.74,5709309.20,0.00 390531.90,5709309.79,0.00 390545.42,5709321.53,0.00 390552.60,5709329.89,0.00 390557.78,5709341.71,0.00 390561.56,5709364.75,0.00 390563.42,5709378.04,0.00" speed="8.33" />
	<edge id="34582315_252980411_401440109" from="252980411" to="401440109" numLanes="1" shape="396132.20,5708462.57,0.00 396115.90,5708525.92,0.00" speed="8.33" />
	<edge id="27773226_8424218510_252470629" from="8424218510" to="252470629" numLanes="1" shape="393533.89,5709611.35,0.00 393532.40,5709622.86,0.00 393526.32,5709665.28,0.00 393524.95,5709670.41,0.00" speed="8.33" />
	<edge id="32728568_262549919_262549922" from="262549919" to="262549922" numLanes="1" shape="392920.61,5709719.81,0.00 392993.44,5709730.28,0.00 392998.10,5709731.80,0.00 393005.78,5709739.05,0.00" speed="8.33" />
	<edge id="32728344_306976483_703397656" from="306976483" to="703397656" numLanes="2" shape="392826.38,5710135.30,0.00 392821.81,5710142.51,0.00" speed="8.33" />
	<edge id="37756752_259222347_252747966" from="259222347" to="252747966" numLanes="1" shape="396076.50,5708022.38,0.00 396003.23,5708022.29,0.00 395930.49,5708018.11,0.00 395918.56,5708077.44,0.00" speed="8.33" />
	<edge id="60442240_733847080_252216055" from="733847080" to="252216055" numLanes="2" shape="395239.48,5706128.10,0.00 395251.15,5706119.64,0.00 395274.21,5706102.98,0.00" speed="8.33" />
	<edge id="4084698_21694124_6246753160" from="21694124" to="6246753160" numLanes="2" shape="394629.69,5709119.20,0.00 394630.65,5709115.61,0.00 394633.02,5709110.00,0.00 394633.73,5709108.79,0.00" speed="8.33" />
	<edge id="25202560_274799462_274799444" from="274799462" to="274799444" numLanes="1" shape="390259.30,5709428.84,0.00 390241.07,5709397.59,0.00 390240.32,5709394.87,0.00 390238.94,5709389.55,0.00 390236.49,5709380.10,0.00 390236.05,5709372.06,0.00 390235.53,5709362.38,0.00 390239.21,5709328.32,0.00 390241.42,5709302.61,0.00 390241.26,5709297.84,0.00 390239.76,5709291.80,0.00 390237.06,5709285.98,0.00 390230.99,5709279.00,0.00 390222.76,5709273.28,0.00 390211.46,5709270.05,0.00 390200.25,5709269.00,0.00 390187.92,5709270.70,0.00 390175.91,5709275.65,0.00 390164.56,5709282.42,0.00 390097.51,5709325.29,0.00 390083.82,5709334.16,0.00 390068.95,5709341.08,0.00 390057.81,5709344.43,0.00 390057.05,5709344.67,0.00 390038.21,5709345.67,0.00 390026.06,5709343.18,0.00 390020.78,5709342.10,0.00 390004.81,5709337.09,0.00 389995.25,5709333.62,0.00 389987.62,5709330.86,0.00 389942.31,5709313.61,0.00 389936.82,5709311.65,0.00" speed="8.33" />
	<edge id="629487719_10764877613_670299924" from="10764877613" to="670299924" numLanes="1" shape="391537.66,5708768.25,0.00 391541.63,5708761.70,0.00 391559.63,5708733.33,0.00 391565.41,5708725.64,0.00 391570.12,5708719.75,0.00 391582.47,5708707.05,0.00 391608.39,5708683.19,0.00 391643.34,5708651.80,0.00 391655.80,5708641.49,0.00 391669.25,5708631.15,0.00 391678.31,5708624.86,0.00 391685.27,5708620.04,0.00 391698.30,5708612.14,0.00 391715.48,5708602.57,0.00 391730.59,5708594.99,0.00 391764.39,5708578.91,0.00 391788.77,5708567.23,0.00 391819.64,5708552.65,0.00 391840.77,5708542.86,0.00 391872.80,5708528.98,0.00 391903.82,5708517.27,0.00 391908.45,5708515.53,0.00 391919.22,5708511.66,0.00 391943.47,5708503.77,0.00 391946.34,5708503.04,0.00 391970.59,5708496.89,0.00 391981.17,5708494.43,0.00 391996.85,5708490.78,0.00 392023.75,5708484.52,0.00 392050.15,5708478.99,0.00 392085.07,5708474.08,0.00" speed="13.89" />
	<edge id="33181290_271872436_391000593" from="271872436" to="391000593" numLanes="1" shape="396226.84,5707200.37,0.00 396220.70,5707201.39,0.00" speed="8.33" />
	<edge id="24250105_262549923_262549922" from="262549923" to="262549922" numLanes="1" shape="393008.01,5709883.07,0.00 393007.79,5709863.86,0.00 393006.37,5709780.68,0.00 393005.78,5709739.05,0.00" speed="8.33" />
	<edge id="25968387_283297158_283297157" from="283297158" to="283297157" numLanes="2" shape="393808.51,5709234.62,0.00 393760.71,5709225.56,0.00" speed="8.33" />
	<edge id="1271541380_370575576_262551599" from="370575576" to="262551599" numLanes="1" shape="392980.37,5707161.17,0.00 392955.79,5707163.93,0.00" speed="8.33" />
	<edge id="1075212609_9861283212_304947085" from="9861283212" to="304947085" numLanes="1" shape="393251.52,5709822.33,0.00 393270.63,5709841.02,0.00" speed="8.33" />
	<edge id="23029042_729689857_248453903" from="729689857" to="248453903" numLanes="1" shape="393619.25,5707587.21,0.00 393615.85,5707587.38,0.00 393595.43,5707588.41,0.00 393504.40,5707593.08,0.00 393501.03,5707593.25,0.00 393485.52,5707594.04,0.00 393456.43,5707595.54,0.00 393452.01,5707595.85,0.00" speed="8.33" />
	<edge id="60442241_752870417_752870395" from="752870417" to="752870395" numLanes="1" shape="395989.14,5705878.60,0.00 395983.58,5705875.42,0.00" speed="13.89" />
	<edge id="47250331_179619375_10870835040" from="179619375" to="10870835040" numLanes="1" shape="393706.34,5707625.55,0.00 393708.47,5707641.01,0.00" speed="13.89" />
	<edge id="172322040_259024632_288719033" from="259024632" to="288719033" numLanes="1" shape="392952.82,5707565.56,0.00 392955.79,5707565.74,0.00 392957.56,5707565.82,0.00 392961.54,5707565.93,0.00 392966.24,5707565.52,0.00 392971.19,5707565.10,0.00 392978.36,5707564.32,0.00 392981.47,5707564.04,0.00 392989.86,5707564.22,0.00 392997.79,5707564.42,0.00" speed="8.33" />
	<edge id="29053480_272479607_11783578581" from="272479607" to="11783578581" numLanes="1" shape="394114.34,5706946.68,0.00 394103.12,5706942.24,0.00 394091.91,5706937.80,0.00" speed="8.33" />
	<edge id="820378658_10774250934_21694244" from="10774250934" to="21694244" numLanes="2" shape="393772.95,5708421.21,0.00 393775.30,5708427.51,0.00" speed="8.33" />
	<edge id="316256636_186143809_255165493" from="186143809" to="255165493" numLanes="2" shape="393324.26,5707079.92,0.00 393334.55,5707080.60,0.00" speed="8.33" />
	<edge id="454381186_247652234_3994296558" from="247652234" to="3994296558" numLanes="2" shape="391953.78,5709225.17,0.00 391953.55,5709226.59,0.00" speed="13.89" />
	<edge id="1268832025_11784639066_280091202" from="11784639066" to="280091202" numLanes="1" shape="394143.53,5706825.46,0.00 394162.05,5706837.67,0.00" speed="8.33" />
	<edge id="84506383_25419103_262549875" from="25419103" to="262549875" numLanes="2" shape="393182.82,5709417.96,0.00 393185.73,5709407.22,0.00 393198.09,5709361.57,0.00 393199.89,5709353.51,0.00" speed="13.89" />
	<edge id="1298054983_9461965766_8844776502" from="9461965766" to="8844776502" numLanes="1" shape="390205.81,5710442.22,0.00 390206.13,5710437.79,0.00 390206.90,5710426.32,0.00" speed="13.89" />
	<edge id="42922001_34596350_34596347" from="34596350" to="34596347" numLanes="1" shape="392380.53,5707148.28,0.00 392389.45,5707149.37,0.00 392394.78,5707150.02,0.00 392432.42,5707154.61,0.00 392500.75,5707163.63,0.00 392503.71,5707164.02,0.00 392513.01,5707165.31,0.00" speed="8.33" />
	<edge id="1170387381_25435927_10879472677" from="25435927" to="10879472677" numLanes="4" shape="393845.24,5706414.45,0.00 393891.01,5706417.39,0.00" speed="13.89" />
	<edge id="1285514053_691866095_691866124" from="691866095" to="691866124" numLanes="1" shape="396664.85,5707960.41,0.00 396685.24,5707987.24,0.00 396718.33,5708030.79,0.00 396720.24,5708033.30,0.00 396724.93,5708044.02,0.00" speed="8.33" />
	<edge id="1096441729_10040850617_5943294274" from="10040850617" to="5943294274" numLanes="2" shape="395077.55,5708581.13,0.00 395070.71,5708573.53,0.00" speed="13.89" />
	<edge id="204812932_255167218_255167217" from="255167218" to="255167217" numLanes="1" shape="393383.85,5706508.15,0.00 393349.04,5706504.86,0.00" speed="8.33" />
	<edge id="27741295_304622638_246693298" from="304622638" to="246693298" numLanes="1" shape="395953.61,5707735.13,0.00 395833.48,5707734.59,0.00" speed="8.33" />
	<edge id="23341928_252749597_252749642" from="252749597" to="252749642" numLanes="1" shape="397051.99,5707230.13,0.00 397044.02,5707283.65,0.00" speed="8.33" />
	<edge id="52890303_670439401_670444655" from="670439401" to="670444655" numLanes="2" shape="393002.93,5709981.05,0.00 393003.16,5709971.56,0.00 393002.56,5709967.18,0.00 393001.64,5709963.73,0.00 392999.60,5709959.79,0.00 392997.41,5709956.62,0.00 392993.50,5709953.50,0.00" speed="13.89" />
	<edge id="1035898292_21451490_9544189595" from="21451490" to="9544189595" numLanes="1" shape="390534.27,5707715.74,0.00 390533.93,5707708.22,0.00" speed="13.89" />
	<edge id="19839012_358310360_207313070" from="358310360" to="207313070" numLanes="1" shape="395701.55,5706660.58,0.00 395699.59,5706598.20,0.00 395698.97,5706580.97,0.00 395698.74,5706570.15,0.00 395697.37,5706534.56,0.00 395694.53,5706453.76,0.00 395694.11,5706441.99,0.00" speed="13.89" />
	<edge id="25609927_271380019_280091202" from="271380019" to="280091202" numLanes="1" shape="394238.95,5706665.08,0.00 394181.58,5706793.83,0.00 394162.05,5706837.67,0.00" speed="8.33" />
	<edge id="891594038_1288999284_3246050495" from="1288999284" to="3246050495" numLanes="4" shape="392808.37,5708218.98,0.00 392810.80,5708199.98,0.00" speed="13.89" />
	<edge id="53256817_673863651_707050231" from="673863651" to="707050231" numLanes="1" shape="395772.54,5707334.44,0.00 395771.53,5707373.80,0.00 395771.19,5707380.20,0.00 395769.06,5707395.69,0.00 395767.14,5707409.63,0.00 395766.81,5707411.15,0.00 395766.04,5707414.75,0.00 395762.56,5707430.84,0.00 395759.37,5707445.59,0.00 395756.77,5707457.63,0.00 395756.14,5707460.55,0.00" speed="8.33" />
	<edge id="17982194_285992665_371727959" from="285992665" to="371727959" numLanes="1" shape="396354.26,5706658.38,0.00 396315.71,5706635.67,0.00" speed="8.33" />
	<edge id="286774329_21453752_252649116" from="21453752" to="252649116" numLanes="2" shape="390644.20,5709249.44,0.00 390644.58,5709245.73,0.00 390645.20,5709240.51,0.00" speed="13.89" />
	<edge id="548753619_252981174_298163317" from="252981174" to="298163317" numLanes="1" shape="396780.72,5708535.09,0.00 396781.96,5708534.09,0.00 396786.15,5708530.68,0.00 396788.49,5708528.82,0.00 396800.95,5708518.53,0.00" speed="8.33" />
	<edge id="53625440_102955291_102955296" from="102955291" to="102955296" numLanes="2" shape="391931.59,5706001.74,0.00 391896.17,5705957.41,0.00 391863.17,5705917.28,0.00 391854.27,5705905.88,0.00" speed="13.89" />
	<edge id="32850415_370061658_445766000" from="370061658" to="445766000" numLanes="1" shape="390743.88,5706228.07,0.00 390742.48,5706218.59,0.00 390741.22,5706206.98,0.00 390739.28,5706193.44,0.00 390729.99,5706131.08,0.00 390718.15,5706066.63,0.00 390717.28,5706063.37,0.00 390715.80,5706058.14,0.00 390713.53,5706052.33,0.00" speed="13.89" />
	<edge id="39843440_261047832_674774156" from="261047832" to="674774156" numLanes="1" shape="390335.64,5708844.86,0.00 390332.81,5708840.80,0.00 390318.29,5708819.88,0.00 390317.61,5708818.92,0.00 390311.22,5708809.71,0.00" speed="13.89" />
	<edge id="40795288_21451516_261046496" from="21451516" to="261046496" numLanes="1" shape="390644.52,5708325.93,0.00 390646.34,5708338.60,0.00 390648.06,5708352.94,0.00 390650.91,5708380.25,0.00 390652.28,5708395.57,0.00" speed="13.89" />
	<edge id="1364014306_255167949_313021778" from="255167949" to="313021778" numLanes="1" shape="393459.75,5706600.64,0.00 393450.01,5706670.94,0.00" speed="8.33" />
	<edge id="1111162056_10167372417_290852253" from="10167372417" to="290852253" numLanes="1" shape="392840.80,5706866.60,0.00 392812.91,5706841.26,0.00" speed="13.89" />
	<edge id="36839147_428249518_428249519" from="428249518" to="428249519" numLanes="1" shape="390317.34,5709315.94,0.00 390318.43,5709322.56,0.00 390325.67,5709335.89,0.00 390342.67,5709363.18,0.00 390346.66,5709369.58,0.00" speed="8.33" />
	<edge id="1133034391_8994759566_10564090050" from="8994759566" to="10564090050" numLanes="1" shape="394800.70,5709771.97,0.00 394803.84,5709771.19,0.00 394810.49,5709769.61,0.00" speed="8.33" />
	<edge id="25202560_274799444_274799462" from="274799444" to="274799462" numLanes="1" shape="389936.82,5709311.65,0.00 389942.31,5709313.61,0.00 389987.62,5709330.86,0.00 389995.25,5709333.62,0.00 390004.81,5709337.09,0.00 390020.78,5709342.10,0.00 390026.06,5709343.18,0.00 390038.21,5709345.67,0.00 390057.05,5709344.67,0.00 390057.81,5709344.43,0.00 390068.95,5709341.08,0.00 390083.82,5709334.16,0.00 390097.51,5709325.29,0.00 390164.56,5709282.42,0.00 390175.91,5709275.65,0.00 390187.92,5709270.70,0.00 390200.25,5709269.00,0.00 390211.46,5709270.05,0.00 390222.76,5709273.28,0.00 390230.99,5709279.00,0.00 390237.06,5709285.98,0.00 390239.76,5709291.80,0.00 390241.26,5709297.84,0.00 390241.42,5709302.61,0.00 390239.21,5709328.32,0.00 390235.53,5709362.38,0.00 390236.05,5709372.06,0.00 390236.49,5709380.10,0.00 390238.94,5709389.55,0.00 390240.32,5709394.87,0.00 390241.07,5709397.59,0.00 390259.30,5709428.84,0.00" speed="8.33" />
	<edge id="770525174_10575833414_11138313667" from="10575833414" to="11138313667" numLanes="1" shape="393221.15,5707568.13,0.00 393212.13,5707570.59,0.00 393204.63,5707571.28,0.00 393196.38,5707570.93,0.00 393173.45,5707569.33,0.00 393162.57,5707568.97,0.00 393144.51,5707568.37,0.00 393123.80,5707568.01,0.00 393107.34,5707567.95,0.00" speed="8.33" />
	<edge id="1225620638_304967827_11365994020" from="304967827" to="11365994020" numLanes="1" shape="394014.61,5708674.54,0.00 394016.20,5708679.65,0.00 394022.30,5708683.13,0.00 394072.72,5708692.63,0.00 394078.32,5708694.92,0.00" speed="8.33" />
	<edge id="858406447_6600863001_248623295" from="6600863001" to="248623295" numLanes="1" shape="390818.04,5705994.28,0.00 390828.16,5705989.79,0.00 390843.43,5705982.52,0.00 390848.65,5705979.72,0.00 390876.76,5705965.27,0.00 390904.63,5705948.45,0.00" speed="13.89" />
	<edge id="418380493_6188641323_4621825997" from="6188641323" to="4621825997" numLanes="1" shape="392624.88,5708170.94,0.00 392613.95,5708229.16,0.00 392610.58,5708247.15,0.00" speed="8.33" />
	<edge id="27379756_300562872_9166407343" from="300562872" to="9166407343" numLanes="1" shape="395474.37,5707220.41,0.00 395470.01,5707227.98,0.00" speed="8.33" />
	<edge id="25150002_279107228_274092713" from="279107228" to="274092713" numLanes="1" shape="395756.12,5707191.54,0.00 395754.78,5707180.99,0.00 395759.97,5707159.91,0.00" speed="8.33" />
	<edge id="24279348_332073649_277580717" from="332073649" to="277580717" numLanes="1" shape="393270.16,5709327.99,0.00 393274.42,5709334.91,0.00 393280.47,5709344.68,0.00 393287.51,5709355.83,0.00 393298.67,5709373.49,0.00 393306.13,5709385.31,0.00 393323.90,5709413.45,0.00" speed="8.33" />
	<edge id="23897655_259023923_288719005" from="259023923" to="288719005" numLanes="1" shape="392748.95,5707873.20,0.00 392752.81,5707772.02,0.00" speed="8.33" />
	<edge id="27777922_305005408_179663224" from="305005408" to="179663224" numLanes="1" shape="395810.84,5708325.20,0.00 395807.83,5708270.49,0.00 395812.52,5708199.12,0.00 395813.92,5708168.92,0.00 395814.32,5708156.25,0.00 395815.97,5708134.45,0.00 395816.36,5708128.10,0.00 395816.69,5708126.53,0.00" speed="8.33" />
	<edge id="23332581_252651300_252651297" from="252651300" to="252651297" numLanes="1" shape="393237.11,5707870.85,0.00 393178.63,5707881.41,0.00 393163.94,5707885.61,0.00 393150.52,5707894.82,0.00 393143.54,5707899.97,0.00" speed="8.33" />
	<edge id="25150002_274091593_279107228" from="274091593" to="279107228" numLanes="1" shape="395797.31,5707336.63,0.00 395795.53,5707326.79,0.00 395793.15,5707313.12,0.00 395785.35,5707268.38,0.00 395759.56,5707196.62,0.00 395756.12,5707191.54,0.00" speed="8.33" />
	<edge id="47312802_252747113_34596384" from="252747113" to="34596384" numLanes="2" shape="392584.11,5706626.07,0.00 392576.34,5706637.74,0.00" speed="13.89" />
	<edge id="627794522_3005712104_25435702" from="3005712104" to="25435702" numLanes="4" shape="392424.41,5706324.49,0.00 392416.04,5706323.63,0.00 392404.15,5706322.07,0.00 392389.00,5706320.11,0.00 392371.73,5706318.25,0.00 392349.73,5706316.57,0.00" speed="13.89" />
	<edge id="25050793_272521893_670117073" from="272521893" to="670117073" numLanes="1" shape="392858.07,5709449.98,0.00 392862.99,5709399.67,0.00 392865.65,5709372.48,0.00 392871.02,5709317.99,0.00" speed="8.33" />
	<edge id="27777590_305003669_305003670" from="305003669" to="305003670" numLanes="1" shape="395208.52,5706414.30,0.00 395204.78,5706421.42,0.00 395179.49,5706470.38,0.00 395170.90,5706475.96,0.00" speed="8.33" />
	<edge id="25204439_274817604_274817457" from="274817604" to="274817457" numLanes="1" shape="395177.41,5709757.29,0.00 395168.28,5709677.97,0.00 395163.28,5709631.03,0.00 395162.67,5709623.46,0.00 395162.12,5709617.26,0.00 395154.99,5709563.69,0.00 395150.02,5709543.15,0.00 395145.99,5709531.31,0.00 395141.33,5709521.25,0.00 395138.23,5709515.32,0.00 395132.84,5709511.03,0.00 395125.02,5709508.37,0.00 395113.58,5709506.15,0.00 395083.76,5709501.04,0.00 395062.77,5709497.43,0.00" speed="8.33" />
	<edge id="62645707_155227742_155227729" from="155227742" to="155227729" numLanes="1" shape="396799.63,5707762.20,0.00 396785.49,5707757.15,0.00 396763.26,5707748.01,0.00" speed="8.33" />
	<edge id="970313521_9915303263_730728899" from="9915303263" to="730728899" numLanes="1" shape="394401.01,5708107.58,0.00 394393.83,5708064.06,0.00 394390.20,5708042.05,0.00" speed="8.33" />
	<edge id="37519793_676780818_257402825" from="676780818" to="257402825" numLanes="2" shape="395046.30,5708033.19,0.00 395031.90,5708028.82,0.00 395018.74,5708025.93,0.00 394998.21,5708023.35,0.00 394975.58,5708023.05,0.00" speed="13.89" />
	<edge id="828798887_2725983830_485768842" from="2725983830" to="485768842" numLanes="1" shape="393744.88,5708307.77,0.00 393749.55,5708335.79,0.00" speed="8.33" />
	<edge id="1137829607_10606070333_164367" from="10606070333" to="164367" numLanes="1" shape="393895.87,5705735.84,0.00 393891.12,5705747.66,0.00 393887.26,5705764.03,0.00 393885.08,5705777.99,0.00" speed="13.89" />
	<edge id="227028025_6960736182_332073649" from="6960736182" to="332073649" numLanes="1" shape="393264.41,5709323.52,0.00 393266.74,5709324.37,0.00 393268.51,5709325.77,0.00 393270.16,5709327.99,0.00" speed="8.33" />
	<edge id="23027975_256240893_256240891" from="256240893" to="256240891" numLanes="1" shape="392005.33,5707911.51,0.00 392049.55,5707925.39,0.00 392051.06,5707925.59,0.00 392055.91,5707926.25,0.00" speed="8.33" />
	<edge id="42828428_6876095059_535772403" from="6876095059" to="535772403" numLanes="1" shape="395739.67,5705861.60,0.00 395736.41,5705862.45,0.00 395729.11,5705865.55,0.00 395721.49,5705869.78,0.00 395715.50,5705875.64,0.00" speed="8.33" />
	<edge id="23027996_245446872_672406190" from="245446872" to="672406190" numLanes="1" shape="390798.52,5707398.02,0.00 390797.03,5707395.77,0.00 390796.81,5707392.00,0.00 390853.63,5707219.06,0.00" speed="8.33" />
	<edge id="23300975_252216471_252217070" from="252216471" to="252217070" numLanes="1" shape="395025.78,5706010.68,0.00 395025.42,5706053.49,0.00 395022.34,5706078.10,0.00 395018.65,5706102.66,0.00 395015.01,5706125.34,0.00 395014.30,5706129.26,0.00" speed="8.33" />
	<edge id="4084698_6246753160_21696820" from="6246753160" to="21696820" numLanes="2" shape="394633.73,5709108.79,0.00 394634.54,5709107.47,0.00 394638.53,5709102.37,0.00 394643.38,5709098.06,0.00 394648.92,5709094.68,0.00 394651.95,5709093.16,0.00" speed="8.33" />
	<edge id="23843255_259223872_258369517" from="259223872" to="258369517" numLanes="1" shape="396161.30,5707510.48,0.00 396161.70,5707515.39,0.00 396163.49,5707535.07,0.00 396164.75,5707546.91,0.00 396165.49,5707560.70,0.00 396165.61,5707562.77,0.00 396168.28,5707596.61,0.00 396172.00,5707616.58,0.00" speed="8.33" />
	<edge id="30148027_283297184_6528518874" from="283297184" to="6528518874" numLanes="1" shape="393891.33,5709122.83,0.00 393900.47,5709122.76,0.00 393904.61,5709123.05,0.00" speed="8.33" />
	<edge id="60212944_10879231026_10879241311" from="10879231026" to="10879241311" numLanes="3" shape="393700.16,5706040.70,0.00 393704.81,5706064.51,0.00 393708.43,5706092.17,0.00 393710.25,5706128.86,0.00 393710.45,5706148.28,0.00 393707.38,5706203.91,0.00 393705.15,5706232.05,0.00 393702.09,5706263.33,0.00" speed="13.89" />
	<edge id="42313098_445769067_6600863001" from="445769067" to="6600863001" numLanes="1" shape="390776.60,5706011.79,0.00 390809.25,5705998.73,0.00 390818.04,5705994.28,0.00" speed="13.89" />
	<edge id="30850291_9934339306_392666884" from="9934339306" to="392666884" numLanes="2" shape="392471.93,5708054.24,0.00 392459.76,5708052.60,0.00 392435.56,5708049.89,0.00" speed="13.89" />
	<edge id="25050962_703397650_272522371" from="703397650" to="272522371" numLanes="2" shape="393001.06,5708848.14,0.00 393000.28,5708857.04,0.00 392999.93,5708862.44,0.00 392999.64,5708866.90,0.00 392996.86,5708909.63,0.00 392993.24,5708965.32,0.00 392992.40,5708978.97,0.00" speed="8.33" />
	<edge id="53137993_672528607_7177913267" from="672528607" to="7177913267" numLanes="2" shape="394087.38,5708896.49,0.00 394086.19,5708893.41,0.00 394084.77,5708861.95,0.00" speed="8.33" />
	<edge id="1271658949_11808982201_262551599" from="11808982201" to="262551599" numLanes="1" shape="392887.06,5707172.71,0.00 392955.79,5707163.93,0.00" speed="8.33" />