<?xml version="1.0" encoding="UTF-8"?>

<!-- generated on 2025-03-17 17:02:36.277301 by randomTrips.py v1_21_0+0970-11e0ee65ceb
<configuration>
    <net-file value="scenarios/46517065-39bb-4c14-a017-550dd94e29aa/ddc30d50-c050-4da1-9653-3859b07f3be2/mosaic/sumo/ddc30d50-c050-4da1-9653-3859b07f3be2.net.xml"/>
    <additional-files value="/Users/PH/Desktop/05-Entwicklung/cav-testing/scenarios/46517065-39bb-4c14-a017-550dd94e29aa/ddc30d50-c050-4da1-9653-3859b07f3be2/mosaic/sumo/vehicle_type_dist_custom.xml"/>
    <output-trip-file value="scenarios/46517065-39bb-4c14-a017-550dd94e29aa/ddc30d50-c050-4da1-9653-3859b07f3be2/mosaic/sumo/ddc30d50-c050-4da1-9653-3859b07f3be2.trips.xml"/>
    <route-file value="scenarios/46517065-39bb-4c14-a017-550dd94e29aa/ddc30d50-c050-4da1-9653-3859b07f3be2/mosaic/sumo/ddc30d50-c050-4da1-9653-3859b07f3be2.rou.xml"/>
    <trip-attributes value="type=&quot;vehicle_type_dist_custom&quot;"/>
    <end value="300.0"/>
    <period value="1.0544119030826868"/>
</configuration>
-->

<!-- generated on 2025-03-17 17:02:36 by Eclipse SUMO duarouter Version v1_21_0+0970-11e0ee65ceb
<duarouterConfiguration xmlns:xsi="http://www.w3.org/2001/XMLSchema-instance" xsi:noNamespaceSchemaLocation="http://sumo.dlr.de/xsd/duarouterConfiguration.xsd">

    <input>
        <net-file value="scenarios/46517065-39bb-4c14-a017-550dd94e29aa/ddc30d50-c050-4da1-9653-3859b07f3be2/mosaic/sumo/ddc30d50-c050-4da1-9653-3859b07f3be2.net.xml"/>
        <additional-files value="/Users/PH/Desktop/05-Entwicklung/cav-testing/scenarios/46517065-39bb-4c14-a017-550dd94e29aa/ddc30d50-c050-4da1-9653-3859b07f3be2/mosaic/sumo/vehicle_type_dist_custom.xml"/>
        <route-files value="scenarios/46517065-39bb-4c14-a017-550dd94e29aa/ddc30d50-c050-4da1-9653-3859b07f3be2/mosaic/sumo/ddc30d50-c050-4da1-9653-3859b07f3be2.trips.xml"/>
    </input>

    <output>
        <output-file value="scenarios/46517065-39bb-4c14-a017-550dd94e29aa/ddc30d50-c050-4da1-9653-3859b07f3be2/mosaic/sumo/ddc30d50-c050-4da1-9653-3859b07f3be2.rou.xml"/>
        <alternatives-output value="NUL"/>
    </output>

    <time>
        <begin value="0"/>
        <end value="300.0"/>
    </time>

    <report>
        <no-warnings value="true"/>
        <ignore-errors value="true"/>
        <no-step-log value="true"/>
    </report>

</duarouterConfiguration>
-->

<routes xmlns:xsi="http://www.w3.org/2001/XMLSchema-instance" xsi:noNamespaceSchemaLocation="http://sumo.dlr.de/xsd/routes_file.xsd">
    <vType id="truck" maxSpeed="25.00" probability="0.08" vClass="truck" containerCapacity="10"/>
    <vehicle id="0" type="truck" depart="0.00">
        <route edges="37519792_246671217_289353559 37519792_289353559_246671217 1065184354_246671217_9288371551"/>
    </vehicle>
    <vType id="van" maxSpeed="30.00" probability="0.12" vClass="delivery"/>
    <vehicle id="1" type="van" depart="1.05">
        <route edges="23299969_252205267_413988172 35319512_413988172_413988171 1000506198_413988171_252205491 1000506196_252205491_457957345 857603031_457957345_257402113 33181286_257402113_149010617 33181285_149010617_249470050 537403961_249470050_149010615 17346544_149010615_249470057 17346544_249470057_179663224 335072215_179663224_685072287 1006854981_685072287_9289129914 1006854982_9289129914_9289129913 1059552794_9289129913_149010612 217413034_149010612_92896800 217413034_92896800_687852623 217413034_687852623_401622349 217413034_401622349_309849790 217413034_309849790_403097939 217413034_403097939_255115232 217413034_255115232_246673825 23758046_246673825_255111028 23757795_255111028_10177320672 1112395889_10177320672_10177320660 1112395889_10177320660_10177320682 491758130_10177320682_391444363 491758130_391444363_676780818 37519793_676780818_257402825 23757817_257402825_439200301 1030930292_439200301_9502775439 37519795_9502775439_9915328337 37519795_9915328337_296356107 1056795856_296356107_257402830 1002042616_257402830_9915303261 1002042616_9915303261_296356135 1002042617_296356135_10002556573 1002042617_10002556573_671243531 1002042615_671243531_317289489 1002042615_317289489_6528518870 1002042615_6528518870_730706719 1030930295_730706719_257402832 739856515_257402832_418218750 542665952_418218750_5246377291 41222343_5246377291_10054705368 41222343_10054705368_179620648 41222344_179620648_21656088 47625583_21656088_274386485 30134025_274386485_6528518862 30134025_6528518862_246204792 41453495_246204792_21656110 41453495_21656110_252935077 41453495_252935077_6528518856 41453495_6528518856_252937428 542664288_252937428_21656131 542664287_21656131_11875003816 542664287_11875003816_21656145 1168981756_21656145_10870695689 37519800_10870695689_6528518848 37519800_6528518848_300909892 1168981757_300909892_21656156 8325123_21656156_10871799439 1169137600_10871799439_245937824 1169008503_245937824_8193467104 41311467_8193467104_6528518853 41311467_6528518853_338913772 37519801_338913772_10606370706 37519801_10606370706_21656173 621781808_21656173_21656175 621781805_21656175_21656179 428892808_21656179_6414551906 428892808_6414551906_21656180 47303640_21656180_21656182 4290105_21656182_247432094 85620994_247432094_8193467074 809271490_8193467074_25897635 317404237_25897635_10575833412 317404237_10575833412_247431667 47310570_247431667_714896620 429356223_714896620_247646158 429356219_247646158_2692938698 1058576629_2692938698_258970861 437264984_258970861_11910952639 437264984_11910952639_11910952640 1152016831_11910952640_10716773847 1272008532_10716773847_11811915375 335729883_11811915375_255239708 41414186_255239708_25897646 23567954_25897646_262551622 802140553_262551622_255165483 17983654_255165483_252213511 17983654_252213511_255166167 17983654_255166167_255166165 17983654_255166165_715860277 17983654_715860277_252213432"/>
    </vehicle>
    <vType id="motorcycle" maxSpeed="40.00" probability="0.06" vClass="motorcycle"/>
    <vehicle id="2" type="motorcycle" depart="2.11">
        <route edges="470786229_334261041_7190050182 770236030_7190050182_334247931 470786227_334247931_11560910453 470786227_11560910453_25292347 975376930_25292347_338736852 32728410_338736852_11414565561 1230821143_11414565561_338736850 470786211_338736850_247651493 770236023_247651493_338736845 30625984_338736845_338736867 30625984_338736867_338736864 32728304_338736864_248798480 880308262_248798480_8188085422 4236588_8188085422_10547876495 4236588_10547876495_25292341 1131431726_25292341_306977776 32728576_306977776_306975838 32728576_306975838_306975517 32728576_306975517_10602323611 32728576_10602323611_10602323610 32728576_10602323610_262549978 32728576_262549978_262549909 44847119_262549909_10602323636 33578116_10602323636_262549900 33578116_262549900_8187797512 880303652_8187797512_262549892 880303652_262549892_6612110746 880303652_6612110746_25392629 1232650922_25392629_11434690188 32728572_11434690188_65076345 26268128_65076345_6612110748 26268128_6612110748_272516441 26268128_272516441_259025271 26268128_259025271_272510383 32728681_272510383_280430758 32728681_280430758_11876393419 1279325567_11876393419_11436632220 1279325567_11436632220_8187833479 880278095_8187833479_8187833559 880278111_8187833559_11876393416 880278111_11876393416_8187833556 880278105_8187833556_8187833498 880278104_8187833498_671185716 880278114_671185716_8187833554 880278114_8187833554_8187833550 880278114_8187833550_8187833549 880278103_8187833549_8187833458 880278103_8187833458_11876393411 880278103_11876393411_8187833494 880278091_8187833494_8187833492 30850292_8187833492_11876393415 30850292_11876393415_671185667 629487718_671185667_25292097 4236574_25292097_5942824763"/>
    </vehicle>
    <vType id="car" maxSpeed="35.00" probability="0.59" vClass="passenger"/>
    <vehicle id="3" type="car" depart="3.16">
        <route edges="629542275_729552745_30480469 58871869_30480469_247648880 58871871_247648880_370345677 58871871_370345677_461632122 880930230_461632122_1187348705 629542235_1187348705_246280741 58871868_246280741_729531600 58871873_729531600_712820370 286761864_712820370_334274137 286761866_334274137_729528151 28706884_729528151_252214527 28706862_252214527_299652003 28706862_299652003_11082369158 28706862_11082369158_299651385 1080583686_299651385_9904446555 44497427_9904446555_1090716531 44497427_1090716531_259025495 66682746_259025495_10176328632 66682746_10176328632_10176328628 66682764_10176328628_730699303 66682764_730699303_10052694849 66682764_10052694849_246204793 54225055_246204793_5943294271 629542318_5943294271_6528518868 629542318_6528518868_240133983 739856516_240133983_257402832 23107420_257402832_418218744 23107420_418218744_3207466751 23107420_3207466751_671243547 23107420_671243547_10301889560 23107420_10301889560_21694188 53137991_21694188_715064870 53137991_715064870_3304302696 53137991_3304302696_672528606 53137619_672528606_672528609 53137619_672528609_672528608 53137619_672528608_672526218 53137989_672526218_5943294282 629542414_5943294282_3304302716 629542414_3304302716_672526213 210579580_672526213_11490100094 210579580_11490100094_11490100090 210579580_11490100090_304965396 98552213_304965396_194230502 98552204_194230502_283297183 98552204_283297183_283297184 25968397_283297184_194230505 1018931210_194230505_9398081040 1170958463_9398081040_267720353 1170958463_267720353_441760737 25968382_441760737_6612110758 25968382_6612110758_194230512 1170958464_194230512_272703712 46839657_272703712_10881597587 1170959282_10881597587_335891557 56036400_335891557_703397602 56036400_703397602_703397580 56036400_703397580_254693844 30148026_254693844_6528545850 30148026_6528545850_254690456 470241271_254690456_252470551 622357554_252470551_6458080514 1170959393_6458080514_10881592789"/>
    </vehicle>
    <vehicle id="4" type="car" depart="4.22">
        <route edges="25991776_283549358_283549357 25991823_283549357_276044121 27508132_276044121_276044123 1059589078_276044123_698844287 953023602_698844287_276044124 542662636_276044124_10881226694 1170956397_10881226694_179620667 542662637_179620667_179632324 55603441_179632324_698818899 542662641_698818899_253025822 542662641_253025822_672074218 542662640_672074218_6524862103 542662640_6524862103_21694253 8325111_21694253_21694250 8325111_21694250_21694246 17343461_21694246_21694244 37519803_21694244_252937308 37519803_252937308_6524862110 37519803_6524862110_247434245 37519804_247434245_252937489 37519804_252937489_672068263 542662635_672068263_672068258 1170944965_672068258_368319496 57686135_368319496_6528518866 57686135_6528518866_21656088 10616650_21656088_257402913 542665953_257402913_5246377292 41222345_5246377292_338918714 41222345_338918714_6528518867 41222345_6528518867_315561270 761758078_315561270_240133983 1030930286_240133983_730706735 41222346_730706735_304971756 41222346_304971756_10002556574 41222346_10002556574_9915303262 41222346_9915303262_296356133 41222346_296356133_9915328339 41222346_9915328339_304971753 1056795859_304971753_9502775427 1030930293_9502775427_676780791 53573148_676780791_296325867 53573147_296325867_179660881 15093034_179660881_296325866 58075338_296325866_10177320664 58075338_10177320664_246669860 828983447_246669860_10177320681 828983447_10177320681_255111027 828983447_255111027_255111028 23758046_255111028_246673825 217413034_246673825_255115232 217413034_255115232_403097939 217413034_403097939_309849790 217413034_309849790_401622349 217413034_401622349_687852623 217413034_687852623_92896800 217413034_92896800_149010612 1059552794_149010612_9289129913 1006854982_9289129913_9289129914 1006854981_9289129914_685072287 335072215_685072287_179663224 17346544_179663224_249470057 17346544_249470057_149010615 537403961_149010615_249470050 23757702_249470050_257402113 857603035_257402113_457957343 1285514050_457957343_257402114 33181284_257402114_257402116 33181284_257402116_257402118 23757710_257402118_249470004 26489363_249470004_252980750 37518005_252980750_2109016176 1075342610_2109016176_252748315"/>
    </vehicle>
    <vehicle id="5" type="motorcycle" depart="5.27">
        <route edges="17979003_186105212_186105168 17979003_186105168_186105212 33779119_186105212_186105225 33779119_186105225_261047671 22736712_261047671_286572266 22736712_286572266_285641543 22736712_285641543_261046496 31232186_261046496_261047840 121055647_261047840_763732796 629450586_763732796_5942507429 72139374_5942507429_261047334 629450584_261047334_11419666040 629450584_11419666040_272859414 47076172_272859414_21451372 9253813_21451372_78536050 10355248_78536050_78536066 501474051_78536066_10208903482 501474051_10208903482_88283542 160842954_88283542_107376973 31101544_107376973_21453756 501474048_21453756_252646518 23332080_252646518_33779216 501474060_33779216_33779217 214468994_33779217_33779219 501474059_33779219_33779220 26155041_33779220_33779225 10594646_33779225_33779229 9726266_33779229_252844616 767358781_252844616_33779234 454380178_33779234_2177570194 207504332_2177570194_33779235 31101547_33779235_33779244 629487722_33779244_12123511626 629487722_12123511626_76938441 9727045_76938441_280394259 9727045_280394259_280394330 9727045_280394330_11961760366 9727045_11961760366_11159840380 9727045_11159840380_280394390 9727045_280394390_33779262 9727045_33779262_65076345 32728572_65076345_11434690188 1232650922_11434690188_25392629 880303652_25392629_6612110746 880303652_6612110746_262549892 880303652_262549892_8187797512 33578116_8187797512_262549900 33578116_262549900_10602323636 44847119_10602323636_262549909 32728576_262549909_262549978 24250107_262549978_306976811 24250107_306976811_306977325 27950252_306977325_306977324"/>
    </vehicle>
    <vehicle id="6" type="van" depart="6.33">
        <route edges="106734737_1227623388_391447244 37518000_391447244_685072510 1265352501_685072510_732700212 165898778_732700212_305005413 165898778_305005413_305005399 37518001_305005399_92896812 628143158_92896812_732700246 10616651_732700246_401621546 10616651_401621546_305210566 628143157_305210566_725878787 857603033_725878787_482112201 857603032_482112201_310212781 28244977_310212781_10040833506 28244977_10040833506_3804680344 1167485197_3804680344_10040850628 1096441732_10040850628_10040850617 44499514_10040850617_289353823 33562068_289353823_289353822 159674760_289353822_247483483 22970274_247483483_274823597 27792104_274823597_247483480 629542351_247483480_9932661899 629542351_9932661899_9932661898 22970277_9932661898_92896891 22970277_92896891_2826464850 629542355_2826464850_92896900 629542359_92896900_269658452 191717508_269658452_1407711829 191717508_1407711829_2904500121 286779959_2904500121_21694015 23324567_21694015_92896907 24518373_92896907_186145696 886482298_186145696_274818372 25204524_274818372_274818373 25204524_274818373_274817456 25204430_274817456_274817455 161852616_274817455_247657584"/>
    </vehicle>
    <vehicle id="7" type="car" depart="7.38">
        <route edges="38378539_309828660_309828657 38378539_309828657_252749256 38378539_252749256_309828685 38378539_309828685_252749189 38378539_252749189_258074368 38378539_258074368_25613341 33181445_25613341_160055318 23456140_160055318_258361646 23842559_258361646_258361475 23842511_258361475_1500292356 136745223_1500292356_258073495 136745223_258073495_310817181 136745223_310817181_25435636 78322596_25435636_391000799 78322596_391000799_10862442424 1167971740_10862442424_300564539 296767391_300564539_10862442425 296767391_10862442425_10588024296 296767391_10588024296_10588024295 28810995_10588024295_679132403 1167985911_679132403_10862587448 60227901_10862587448_10862563996 629542163_10862563996_279107316 629542163_279107316_207302213 28811002_207302213_279107218 28811002_279107218_2782970377 28811002_2782970377_203047206 27265528_203047206_676659028 82884973_676659028_678584809 166020560_678584809_388199431 166020560_388199431_203047210 112573096_203047210_2419340808 112573096_2419340808_2368144503 112573096_2368144503_2419340815 233568450_2419340815_2419340798 172293325_2419340798_268674848 24889527_268674848_676784034 207920211_676784034_2419340800 207920211_2419340800_388199564 207920211_388199564_388199674 22911434_388199674_388199605 44724179_388199605_2419340814 44724179_2419340814_5943294272 1112395890_5943294272_10177320678 1112395890_10177320678_10177320681 1112395892_10177320681_10177320685 1112395894_10177320685_10177320682 491758130_10177320682_391444363 491758130_391444363_676780818 37519793_676780818_257402825 23757817_257402825_439200301 1030930292_439200301_9502775439 37519795_9502775439_9915328337 37519795_9915328337_296356107 1056795856_296356107_257402830 1002042616_257402830_9915303261 1002042616_9915303261_296356135 1002042617_296356135_10002556573 1002042617_10002556573_671243531 1002042615_671243531_317289489 1002042615_317289489_6528518870 1002042615_6528518870_730706719 1030930295_730706719_257402832 739856515_257402832_418218750 542665952_418218750_5246377291 41222343_5246377291_10054705368 41222343_10054705368_179620648 41222344_179620648_21656088 47625583_21656088_274386485 30134025_274386485_6528518862"/>
    </vehicle>
    <vehicle id="8" type="car" depart="8.44">
        <route edges="17982194_130115965_391004076 1348326018_391004076_9106398317 26753188_9106398317_292988559 26714312_292988559_391002847 59541212_391002847_25435971 78322589_25435971_25435636 78322596_25435636_391000799 78322596_391000799_10862442424 1167971740_10862442424_300564539 296767391_300564539_10862442425 296767391_10862442425_10588024296 296767391_10588024296_10588024295 28810995_10588024295_679132403 1167985911_679132403_10862587448 60227901_10862587448_10862563996 629542163_10862563996_279107316 629542163_279107316_207302213 28811002_207302213_279107218 28811002_279107218_2782970377 28811002_2782970377_203047206 27265528_203047206_676659028 82884973_676659028_678584809 166020560_678584809_388199431 166020560_388199431_203047210 112573096_203047210_2419340808 112573096_2419340808_2368144503 112573096_2368144503_2419340815 233568450_2419340815_2419340798 172293325_2419340798_268674848 24889527_268674848_676784034 207920211_676784034_2419340800 207920211_2419340800_388199564 207920211_388199564_388199674 22911434_388199674_388199605 44724179_388199605_2419340814 44724179_2419340814_5943294272 1112395890_5943294272_10177320678 1112395890_10177320678_10177320681 1112395892_10177320681_10177320685 1112395894_10177320685_10177320682 491758130_10177320682_391444363 491758130_391444363_676780818 37519793_676780818_257402825 23757817_257402825_439200301 1030930292_439200301_9502775439 37519795_9502775439_9915328337 37519795_9915328337_296356107 1056795856_296356107_257402830 1002042616_257402830_9915303261 1002042616_9915303261_296356135 1002042617_296356135_10002556573 1002042617_10002556573_671243531 1002042615_671243531_317289489 1002042615_317289489_6528518870 1002042615_6528518870_730706719 1030930295_730706719_257402832 739856515_257402832_418218750 542665952_418218750_5246377291 41222343_5246377291_10054705368 41222343_10054705368_179620648 17344044_179620648_418166175 58979836_418166175_179620651 58979836_179620651_179620653 542664289_179620653_6524862109 542664289_6524862109_9257716606 1003178513_9257716606_9257716605 1170948705_9257716605_672074236 1170948706_672074236_10881543783 58979808_10881543783_612455277 220520555_612455277_6524862105 220520555_6524862105_179632320 830802165_179632320_179632321 17344178_179632321_283549679 17344178_283549679_2920247868 17344178_2920247868_276044124 542662636_276044124_10881226694 1170956397_10881226694_179620667 542662637_179620667_179632324 542662638_179632324_10900111858 542662638_10900111858_332544963 220520556_332544963_698818881 55606250_698818881_451481758 222427534_451481758_21694508 222427535_21694508_252551548 41414177_252551548_10771902434 41414177_10771902434_21694514 625169353_21694514_21694518 625169352_21694518_731883644 625169352_731883644_25392765 4246103_25392765_672526204 220914848_672526204_441806978 625169347_441806978_5902818339 625169346_5902818339_703397636 625169345_703397636_703397668 625169345_703397668_283297160 45965580_283297160_283297208 45965580_283297208_283297171 1201016512_283297171_11135668983 1201016511_11135668983_3822460700 966274316_3822460700_6612110754 966274316_6612110754_107370901 768533514_107370901_21694556 4246104_21694556_6960736133 4246104_6960736133_21694567 966274318_21694567_11716532726 966274318_11716532726_252469927 23317851_252469927_252469834 23317851_252469834_11716532724 23317851_11716532724_262549843 1285346730_262549843_11923515449 1285346729_11923515449_262549844 24250085_262549844_262549850 24250085_262549850_262549847 33578102_262549847_304948228 33578102_304948228_262549919 32728568_262549919_262549922"/>
    </vehicle>
    <vehicle id="9" type="van" depart="9.49">
        <route edges="55482836_252950474_21694379 44499681_21694379_1207649607 1170865431_1207649607_21694355 1170865430_21694355_2385222631 1170865430_2385222631_179628315 44499682_179628315_179628317 318210196_179628317_179628319 318210196_179628319_255240150 41311466_255240150_6416443890 41311466_6416443890_179629167 486698569_179629167_679451990 543048019_679451990_451356576 543048019_451356576_247429930 41418357_247429930_6111440033 831165525_6111440033_148218119 543048020_148218119_240133960 543048020_240133960_10900111859 543048020_10900111859_21694277 542662642_21694277_12044331837 542662642_12044331837_21694274 1170951730_21694274_10881226686 542662641_10881226686_698818899 542662641_698818899_253025822 542662641_253025822_672074218 542662640_672074218_6524862103 542662640_6524862103_21694253 8325111_21694253_21694250 8325111_21694250_21694246 17343461_21694246_21694244 37519803_21694244_252937308 37519803_252937308_6524862110 37519803_6524862110_247434245 37519804_247434245_252937489 37519804_252937489_672068263 542662635_672068263_672068258 1170944965_672068258_368319496 57686135_368319496_6528518866 57686135_6528518866_21656088 10616650_21656088_257402913 542665953_257402913_5246377292 41222345_5246377292_338918714 41222345_338918714_6528518867 41222345_6528518867_315561270 761758078_315561270_240133983 1030930286_240133983_730706735 41222346_730706735_304971756 41222346_304971756_10002556574 41222346_10002556574_9915303262 41222346_9915303262_296356133 41222346_296356133_9915328339 41222346_9915328339_304971753 1056795859_304971753_9502775427 1030930293_9502775427_676780791 53573148_676780791_296325867 53573147_296325867_179660881 15093034_179660881_296325866 58075338_296325866_10177320664 58075338_10177320664_246669860 828983447_246669860_10177320681 828983447_10177320681_255111027 828983447_255111027_255111028 23758046_255111028_246673825 217413034_246673825_255115232 217413034_255115232_403097939 217413034_403097939_309849790 217413034_309849790_401622349 217413034_401622349_687852623 217413034_687852623_92896800 217413034_92896800_149010612 1059552794_149010612_9289129913 1006854982_9289129913_9289129914 1006854981_9289129914_685072287"/>
    </vehicle>
    <vehicle id="10" type="motorcycle" depart="10.54">
        <route edges="548753618_252981164_694164082 1000502539_694164082_9888543575 1000502539_9888543575_343433120 671377493_343433120_252981174 17346818_252981174_298163313 911028864_298163313_8459288908 200760564_8459288908_249470004 23757710_249470004_257402118 23757708_257402118_690755431 23757708_690755431_149010617 33181285_149010617_249470050 537403961_249470050_149010615 17346544_149010615_249470057 17346544_249470057_179663224 335072215_179663224_685072287 1006854981_685072287_9289129914 1006854982_9289129914_9289129913 1059552794_9289129913_149010612 217413034_149010612_92896800 217413034_92896800_687852623 217413034_687852623_401622349 217413034_401622349_309849790 217413034_309849790_403097939 217413034_403097939_255115232 217413034_255115232_246673825 23758046_246673825_255111028 23757795_255111028_10177320672 1112395889_10177320672_10177320660 1112395889_10177320660_10177320682 491758130_10177320682_391444363 491758130_391444363_676780818 37519793_676780818_257402825 23757817_257402825_439200301 1030930292_439200301_9502775439 37519795_9502775439_9915328337 37519795_9915328337_296356107 1056795856_296356107_257402830 1002042616_257402830_9915303261 1002042616_9915303261_296356135 1002042617_296356135_10002556573 1002042617_10002556573_671243531 1002042615_671243531_317289489 1002042615_317289489_6528518870 1002042615_6528518870_730706719 1030930295_730706719_257402832 739856515_257402832_418218750 542665952_418218750_5246377291 41222343_5246377291_10054705368 41222343_10054705368_179620648 17344044_179620648_418166175 58979836_418166175_179620651 58979836_179620651_179620653 542664289_179620653_6524862109 542664289_6524862109_9257716606 1003178513_9257716606_9257716605 1170948705_9257716605_672074236 1170948706_672074236_10881543783 58979808_10881543783_612455277 220520555_612455277_6524862105 220520555_6524862105_179632320 830802165_179632320_179632321 17344178_179632321_283549679 17344178_283549679_2920247868 17344178_2920247868_276044124 542662636_276044124_10881226694 1170956397_10881226694_179620667 542662637_179620667_179632324 542662638_179632324_10900111858 542662638_10900111858_332544963 17344277_332544963_451481765 542665950_451481765_2711712830 542665951_2711712830_731541367 542665949_731541367_5246377290 542665948_5246377290_348405236 542665948_348405236_247429931 739626184_247429931_2405588219 217290412_2405588219_679451984 486698571_679451984_6416443891 486698571_6416443891_206335833 543048018_206335833_697236688 41418354_697236688_6416409115 41418354_6416409115_179630416 41418355_179630416_10880943165 1170731255_10880943165_93006142 1170731254_93006142_10880943164 318210197_10880943164_93006147 40617747_93006147_1288999284 891594038_1288999284_3246050495 59009855_3246050495_10032287843 59009855_10032287843_93006149 17344863_93006149_342488679 30830669_342488679_181291582 318210201_181291582_9934251280 318210201_9934251280_718467200 318210203_718467200_461628881 318129573_461628881_272506688 318129575_272506688_9934402330 318129575_9934402330_203026841 1084094681_203026841_9934339306 1084094677_9934339306_9934339309 1084094676_9934339309_9934402335 1084094676_9934402335_9934339310 1084094679_9934339310_2261837599 216862004_2261837599_5942824762 629487710_5942824762_2261837571 629487710_2261837571_243890385 216862006_243890385_2261837566 53162565_2261837566_672783868 53162563_672783868_672783896 53162563_672783896_672783860 313597518_672783860_672783881 53162561_672783881_1274113909 53162564_1274113909_676020796 819313997_676020796_247645570 933899772_247645570_246684816 153955572_246684816_246684817 72493059_246684817_278804478 153955573_278804478_278804477 42922001_278804477_246684199"/>
    </vehicle>
    <vehicle id="11" type="van" depart="11.60">
        <route edges="24250107_262549908_306977594 24250107_306977594_306977665 24250107_306977665_9709702245 1056683935_9709702245_9709702229 1056683935_9709702229_272520978 1056683935_272520978_9709702238 470786220_9709702238_4649761725 470786214_4649761725_670439390 1140326912_670439390_10624828482 52890941_10624828482_670444658 1332185194_670444658_262549921 1332185194_262549921_10732578720 1332185194_10732578720_6188915569"/>
    </vehicle>
    <vehicle id="12" type="car" depart="12.65">
        <route edges="880278111_11876393416_8187833556 23897778_8187833556_259025239 146497004_259025239_8187833534 880278109_8187833534_11876393417 880278109_11876393417_8187833532 880278110_8187833532_11436632218 880278110_11436632218_8187833474 880278093_8187833474_693139989 880278102_693139989_399658321 8361800_399658321_399658318 1102261978_399658318_10086125043 1102261978_10086125043_10086125044 1102261980_10086125044_10086125045 1102261982_10086125045_272523374 25050962_272523374_703397650 25050962_703397650_272522371 25050869_272522371_6612110751 25050869_6612110751_272522646 33578106_272522646_272522647 33578102_272522647_262549873 24250090_262549873_272520880 24250090_272520880_670117073"/>
    </vehicle>
    <vehicle id="13" type="car" depart="13.71">
        <route edges="1183303174_283102080_259026495 23897989_259026495_259023923 23897655_259023923_288719005 26537032_288719005_12608199128 1361802135_12608199128_451218692 1361802132_451218692_12608199129 1361802134_12608199129_451218676 38261112_451218676_288718951 38261112_288718951_710905794 38261112_710905794_710905793 38261112_710905793_577856361 770525176_577856361_259024632 172322040_259024632_288719033 770525178_288719033_10704173560 770525178_10704173560_10704173561 770525178_10704173561_288719030 90060941_288719030_11138313666 1201352683_11138313666_11138313667 1201352683_11138313667_11138313666"/>
    </vehicle>
    <vehicle id="14" type="car" depart="14.76">