<?xml version="1.0" encoding="UTF-8"?>

<!-- generated on 2025-03-17 17:02:35.231279 by randomTrips.py v1_21_0+0970-11e0ee65ceb
<configuration>
    <net-file value="scenarios/46517065-39bb-4c14-a017-550dd94e29aa/ddc30d50-c050-4da1-9653-3859b07f3be2/mosaic/sumo/ddc30d50-c050-4da1-9653-3859b07f3be2.net.xml"/>
    <additional-files value="/Users/PH/Desktop/05-Entwicklung/cav-testing/scenarios/46517065-39bb-4c14-a017-550dd94e29aa/ddc30d50-c050-4da1-9653-3859b07f3be2/mosaic/sumo/vehicle_type_dist_custom.xml"/>
    <output-trip-file value="scenarios/46517065-39bb-4c14-a017-550dd94e29aa/ddc30d50-c050-4da1-9653-3859b07f3be2/mosaic/sumo/ddc30d50-c050-4da1-9653-3859b07f3be2.trips.xml"/>
    <route-file value="scenarios/46517065-39bb-4c14-a017-550dd94e29aa/ddc30d50-c050-4da1-9653-3859b07f3be2/mosaic/sumo/ddc30d50-c050-4da1-9653-3859b07f3be2.rou.xml"/>
    <trip-attributes value="type=&quot;vehicle_type_dist_custom&quot;"/>
    <end value="300.0"/>
    <period value="1.0544119030826868"/>
</configuration>
-->

<routes xmlns:xsi="http://www.w3.org/2001/XMLSchema-instance" xsi:noNamespaceSchemaLocation="http://sumo.dlr.de/xsd/routes_file.xsd">
    <trip id="0" depart="0.00" from="37519792_246671217_289353559" to="1065184354_246671217_9288371551" type="vehicle_type_dist_custom"/>
    <trip id="1" depart="1.05" from="23299969_252205267_413988172" to="17983654_715860277_252213432" type="vehicle_type_dist_custom"/>
    <trip id="2" depart="2.11" from="470786229_334261041_7190050182" to="4236574_25292097_5942824763" type="vehicle_type_dist_custom"/>
    <trip id="3" depart="3.16" from="629542275_729552745_30480469" to="1170959393_6458080514_10881592789" type="vehicle_type_dist_custom"/>
    <trip id="4" depart="4.22" from="25991776_283549358_283549357" to="1075342610_2109016176_252748315" type="vehicle_type_dist_custom"/>
    <trip id="5" depart="5.27" from="17979003_186105212_186105168" to="27950252_306977325_306977324" type="vehicle_type_dist_custom"/>
    <trip id="6" depart="6.33" from="106734737_1227623388_391447244" to="161852616_274817455_247657584" type="vehicle_type_dist_custom"/>
    <trip id="7" depart="7.38" from="38378539_309828660_309828657" to="30134025_274386485_6528518862" type="vehicle_type_dist_custom"/>
    <trip id="8" depart="8.44" from="17982194_130115965_391004076" to="32728568_262549919_262549922" type="vehicle_type_dist_custom"/>
    <trip id="9" depart="9.49" from="55482836_252950474_21694379" to="1006854981_9289129914_685072287" type="vehicle_type_dist_custom"/>
    <trip id="10" depart="10.54" from="548753618_252981164_694164082" to="42922001_278804477_246684199" type="vehicle_type_dist_custom"/>
    <trip id="11" depart="11.60" from="24250107_262549908_306977594" to="1332185194_10732578720_6188915569" type="vehicle_type_dist_custom"/>
    <trip id="12" depart="12.65" from="880278111_11876393416_8187833556" to="24250090_272520880_670117073" type="vehicle_type_dist_custom"/>
    <trip id="13" depart="13.71" from="1183303174_283102080_259026495" to="1201352683_11138313667_11138313666" type="vehicle_type_dist_custom"/>
    <trip id="14" depart="14.76" from="60442241_752870395_130116063" to="33181446_441577171_150610327" type="vehicle_type_dist_custom"/>
    <trip id="15" depart="15.82" from="548757980_352781485_352783643" to="46848289_11152096260_78536129" type="vehicle_type_dist_custom"/>
    <trip id="16" depart="16.87" from="29451611_685965068_11152096263" to="924819636_274092309_8583013114" type="vehicle_type_dist_custom"/>
    <trip id="17" depart="17.93" from="25149960_274092126_2416402539" to="307602566_295712611_3128031510" type="vehicle_type_dist_custom"/>
    <trip id="18" depart="18.98" from="58654802_27001995_146960770" to="34446259_396527822_8968664308" type="vehicle_type_dist_custom"/>
    <trip id="19" depart="20.03" from="625424815_5905140879_25291376" to="317117568_34596400_246064597" type="vehicle_type_dist_custom"/>
    <trip id="20" depart="21.09" from="44499514_10040850617_289353823" to="1103847942_289916824_182941798" type="vehicle_type_dist_custom"/>
    <trip id="21" depart="22.14" from="191717499_107388461_718588120" to="23341437_252745507_252745527" type="vehicle_type_dist_custom"/>
    <trip id="22" depart="23.20" from="1169714285_718327317_246075415" to="204812932_255167218_255167217" type="vehicle_type_dist_custom"/>
    <trip id="23" depart="24.25" from="1225620638_304967827_11365994020" to="23317794_10569260769_252468641" type="vehicle_type_dist_custom"/>
    <trip id="24" depart="25.31" from="37517996_246671217_301998575" to="25020719_391443961_676659028" type="vehicle_type_dist_custom"/>
    <trip id="25" depart="26.36" from="25049050_270998680_272503796" to="172320645_276648681_1226919720" type="vehicle_type_dist_custom"/>
    <trip id="26" depart="27.41" from="23027975_256240891_256240893" to="80301275_300076707_300076698" type="vehicle_type_dist_custom"/>
    <trip id="27" depart="28.47" from="38279367_259024419_288719028" to="33578102_262549873_262549856" type="vehicle_type_dist_custom"/>
    <trip id="28" depart="29.52" from="13796746_279217579_291662512" to="46843345_283297207_283297209" type="vehicle_type_dist_custom"/>
    <trip id="29" depart="30.58" from="1361802132_451218692_12608199129" to="25150057_274092311_274092309" type="vehicle_type_dist_custom"/>
    <trip id="30" depart="31.63" from="9726266_33779229_252844616" to="37519795_9915328337_296356107" type="vehicle_type_dist_custom"/>
    <trip id="31" depart="32.69" from="31101539_25392644_25392647" to="4261218_428249221_25551233" type="vehicle_type_dist_custom"/>
    <trip id="32" depart="33.74" from="59704740_309695692_309851931" to="52980441_2688545081_2688545077" type="vehicle_type_dist_custom"/>
    <trip id="33" depart="34.80" from="19543046_203022306_203022307" to="1079243464_293452326_9249518743" type="vehicle_type_dist_custom"/>
    <trip id="34" depart="35.85" from="23652004_256240131_256240574" to="23028010_186114461_288774569" type="vehicle_type_dist_custom"/>
    <trip id="35" depart="36.90" from="172347903_8805619492_415860824" to="830802164_179632321_21694246" type="vehicle_type_dist_custom"/>
    <trip id="36" depart="37.96" from="629450620_21451466_21451467" to="23567954_25897646_262551622" type="vehicle_type_dist_custom"/>
    <trip id="37" depart="39.01" from="40000880_285999492_295712696" to="25334373_283550947_146963909" type="vehicle_type_dist_custom"/>
    <trip id="38" depart="40.07" from="723262792_283297156_283297157" to="26984317_295774293_295774311" type="vehicle_type_dist_custom"/>
    <trip id="39" depart="41.12" from="22974398_25419074_247651493" to="22736007_1546216538_243889960" type="vehicle_type_dist_custom"/>
    <trip id="40" depart="42.18" from="31318261_272523374_10086125053" to="22973895_683554674_248453270" type="vehicle_type_dist_custom"/>
    <trip id="41" depart="43.23" from="32029193_391000593_391001638" to="629542399_2917743291_10177449457" type="vehicle_type_dist_custom"/>
    <trip id="42" depart="44.29" from="254855020_362929899_370062489" to="17982191_25435976_279218025" type="vehicle_type_dist_custom"/>
    <trip id="43" depart="45.34" from="98552221_304947083_304947084" to="28208687_309828704_682185082" type="vehicle_type_dist_custom"/>
    <trip id="44" depart="46.39" from="1174288110_275653775_25435876" to="1111162057_10167372419_10167345915" type="vehicle_type_dist_custom"/>
    <trip id="45" depart="47.45" from="1268825168_272478833_11784584997" to="35411109_259857753_11910952594" type="vehicle_type_dist_custom"/>
    <trip id="46" depart="48.50" from="53819164_671512610_679407124" to="25991823_283549357_283549477" type="vehicle_type_dist_custom"/>
    <trip id="47" depart="49.56" from="1155455834_248798198_703573883" to="25191475_315561270_671243530" type="vehicle_type_dist_custom"/>
    <trip id="48" depart="50.61" from="98552197_274819217_681489146" to="290586813_2941012631_2941012632" type="vehicle_type_dist_custom"/>
    <trip id="49" depart="51.67" from="901635571_679672940_705725765" to="625169352_731883644_25392765" type="vehicle_type_dist_custom"/>
    <trip id="50" depart="52.72" from="1019017589_285999002_128526780" to="44847129_252551416_252470986" type="vehicle_type_dist_custom"/>
    <trip id="51" depart="53.78" from="4246111_392050078_203022372" to="296763748_246066347_672997657" type="vehicle_type_dist_custom"/>
    <trip id="52" depart="54.83" from="23027975_256240574_256240893" to="37519803_6524862110_247434245" type="vehicle_type_dist_custom"/>
    <trip id="53" depart="55.88" from="1268827506_8928521612_11784579244" to="26170820_286582550_286582545" type="vehicle_type_dist_custom"/>
    <trip id="54" depart="56.94" from="26979956_295712611_295712613" to="877847840_148239277_303449182" type="vehicle_type_dist_custom"/>
    <trip id="55" depart="57.99" from="629450616_21451490_3198378387" to="22974120_283297157_6516680616" type="vehicle_type_dist_custom"/>
    <trip id="56" depart="59.05" from="27788296_747877394_246075293" to="147010685_245939945_1602066527" type="vehicle_type_dist_custom"/>
    <trip id="57" depart="60.10" from="71132840_10911314956_25435735" to="628143165_692018533_5930115708" type="vehicle_type_dist_custom"/>
    <trip id="58" depart="61.16" from="23360056_252937316_252937489" to="37519789_684715062_272024914" type="vehicle_type_dist_custom"/>
    <trip id="59" depart="62.21" from="335729883_11811915375_255239708" to="1321609973_12229655885_11811982171" type="vehicle_type_dist_custom"/>
    <trip id="60" depart="63.26" from="501474051_78536066_10208903482" to="29859405_274094185_752870332" type="vehicle_type_dist_custom"/>
    <trip id="61" depart="64.32" from="53065915_21656240_252945006" to="29250945_321693258_6876095060" type="vehicle_type_dist_custom"/>
    <trip id="62" depart="65.37" from="1000502539_694164082_252980882" to="23815368_158710424_25613341" type="vehicle_type_dist_custom"/>
    <trip id="63" depart="66.43" from="1056795855_9915328338_2301118368" to="770525174_10575833414_11138313667" type="vehicle_type_dist_custom"/>
    <trip id="64" depart="67.48" from="629487704_34596382_6900835057" to="588445057_6528518871_21694188" type="vehicle_type_dist_custom"/>
    <trip id="65" depart="68.54" from="23558710_255111027_255111057" to="1134738862_10578551390_864076139" type="vehicle_type_dist_custom"/>
    <trip id="66" depart="69.59" from="629487700_6900835053_102955291" to="84506385_252469655_21694583" type="vehicle_type_dist_custom"/>
    <trip id="67" depart="70.65" from="1170944965_672068258_368319496" to="27771818_272516532_272519855" type="vehicle_type_dist_custom"/>
    <trip id="68" depart="71.70" from="1167971740_10862442424_300564539" to="496950806_295774311_295774316" type="vehicle_type_dist_custom"/>
    <trip id="69" depart="72.75" from="5067645_726735151_269682230" to="1283776054_285987246_255167215" type="vehicle_type_dist_custom"/>
    <trip id="70" depart="73.81" from="27464631_10167372480_186143829" to="30625983_334257628_306980025" type="vehicle_type_dist_custom"/>
    <trip id="71" depart="74.86" from="22980240_477802_256862528" to="629450573_21451359_21451358" type="vehicle_type_dist_custom"/>
    <trip id="72" depart="75.92" from="25991883_146963916_283550102" to="17343012_6528518857_702242942" type="vehicle_type_dist_custom"/>
    <trip id="73" depart="76.97" from="296767391_300564539_10862442425" to="46848290_78536133_679407123" type="vehicle_type_dist_custom"/>
    <trip id="74" depart="78.03" from="161867579_252980411_252980414" to="23564564_252213584_255165490" type="vehicle_type_dist_custom"/>
    <trip id="75" depart="79.08" from="982182370_286450644_286450614" to="38378539_309828685_252749189" type="vehicle_type_dist_custom"/>
    <trip id="76" depart="80.14" from="26268128_65076345_6612110748" to="286774327_252649116_78536087" type="vehicle_type_dist_custom"/>
    <trip id="77" depart="81.19" from="1272011532_11811968983_262551601" to="187766389_3371656410_243889564" type="vehicle_type_dist_custom"/>
    <trip id="78" depart="82.24" from="24250093_401342018_671197388" to="32728347_334256914_6456460712" type="vehicle_type_dist_custom"/>
    <trip id="79" depart="83.30" from="19838830_186131609_300076704" to="17982194_285992665_391004076" type="vehicle_type_dist_custom"/>
    <trip id="80" depart="84.35" from="1168150834_10863781196_10863781197" to="36838718_428244762_130116049" type="vehicle_type_dist_custom"/>
    <trip id="81" depart="85.41" from="191717508_269658452_1407711829" to="65543618_246684706_1665668611" type="vehicle_type_dist_custom"/>
    <trip id="82" depart="86.46" from="625169345_703397668_283297160" to="1168150833_10863781197_25435623" type="vehicle_type_dist_custom"/>
    <trip id="83" depart="87.52" from="217413034_149010612_92896800" to="41417723_10569260772_252468641" type="vehicle_type_dist_custom"/>
    <trip id="84" depart="88.57" from="17346818_252981174_298163313" to="1285346729_262549844_11923515449" type="vehicle_type_dist_custom"/>
    <trip id="85" depart="89.63" from="802140553_262551622_255165483" to="316256627_709050516_248453272" type="vehicle_type_dist_custom"/>
    <trip id="86" depart="90.68" from="27379899_310826146_316756605" to="53162566_1430142474_672783860" type="vehicle_type_dist_custom"/>
    <trip id="87" depart="91.73" from="55007036_280430755_670208520" to="15558239_413531002_180345974" type="vehicle_type_dist_custom"/>
    <trip id="88" depart="92.79" from="1201352683_11138313666_11138313667" to="26159239_286450572_286450575" type="vehicle_type_dist_custom"/>
    <trip id="89" depart="93.84" from="25991905_146963916_146963935" to="27296249_301560670_301560656" type="vehicle_type_dist_custom"/>
    <trip id="90" depart="94.90" from="46843348_247652485_247652484" to="418380493_4621825997_6188641323" type="vehicle_type_dist_custom"/>
    <trip id="91" depart="95.95" from="966274316_3822460700_6612110754" to="121055647_763732796_261047840" type="vehicle_type_dist_custom"/>
    <trip id="92" depart="97.01" from="25606994_300562932_279107218" to="24250104_358198884_262549909" type="vehicle_type_dist_custom"/>
    <trip id="93" depart="98.06" from="625424815_5905140879_25291376" to="22736712_261046496_285641543" type="vehicle_type_dist_custom"/>
    <trip id="94" depart="99.11" from="15558234_252206262_249720457" to="26638230_130115987_292181637" type="vehicle_type_dist_custom"/>
    <trip id="95" depart="100.17" from="25991776_283549358_283549357" to="23317797_252468655_252468654" type="vehicle_type_dist_custom"/>
    <trip id="96" depart="101.22" from="22736712_286572266_285641543" to="753537378_272477554_252213907" type="vehicle_type_dist_custom"/>
    <trip id="97" depart="102.28" from="26489347_252205489_728705434" to="625169355_729625250_5902818343" type="vehicle_type_dist_custom"/>
    <trip id="98" depart="103.33" from="30625984_338736867_338736864" to="1113019560_65077423_252213433" type="vehicle_type_dist_custom"/>
    <trip id="99" depart="104.39" from="998200991_480700868_9216697708" to="58880989_255167950_729627439" type="vehicle_type_dist_custom"/>
    <trip id="100" depart="105.44" from="90042841_256241179_256240892" to="770074670_259025412_259025410" type="vehicle_type_dist_custom"/>
    <trip id="101" depart="106.50" from="60693974_671852334_148234215" to="1364014436_12630265423_12630256316" type="vehicle_type_dist_custom"/>
    <trip id="102" depart="107.55" from="27771702_9861283212_304947096" to="17346818_298163313_252981174" type="vehicle_type_dist_custom"/>
    <trip id="103" depart="108.60" from="25568017_271227349_271225612" to="1137819390_3195362207_11910952640" type="vehicle_type_dist_custom"/>
    <trip id="104" depart="109.66" from="25149960_8583013114_274092309" to="967023844_8939891807_4420928192" type="vehicle_type_dist_custom"/>
    <trip id="105" depart="110.71" from="23027756_276648682_248421119" to="53162564_1274113909_676020796" type="vehicle_type_dist_custom"/>
    <trip id="106" depart="111.77" from="26979956_401445049_295712611" to="25991883_146963916_283550102" type="vehicle_type_dist_custom"/>
    <trip id="107" depart="112.82" from="880278111_8187833559_11876393416" to="982282735_1843587397_8062878571" type="vehicle_type_dist_custom"/>
    <trip id="108" depart="113.88" from="30977085_274799462_428249519" to="44847121_25292052_311715859" type="vehicle_type_dist_custom"/>
    <trip id="109" depart="114.93" from="1331617604_10177597714_274819757" to="23359763_392677098_247442264" type="vehicle_type_dist_custom"/>
    <trip id="110" depart="115.99" from="90042841_256240575_256241179" to="317404237_10575833412_247431667" type="vehicle_type_dist_custom"/>
    <trip id="111" depart="117.04" from="30016044_25292255_252888003" to="496747080_293013088_293013087" type="vehicle_type_dist_custom"/>
    <trip id="112" depart="118.09" from="1134383528_10575510547_9936154887" to="31975627_10566694522_10566694519" type="vehicle_type_dist_custom"/>
    <trip id="113" depart="119.15" from="27950229_306975517_306976994" to="621444311_78536129_732011045" type="vehicle_type_dist_custom"/>
    <trip id="114" depart="120.20" from="1332185976_247650403_7189025969" to="880930205_300909919_7920160006" type="vehicle_type_dist_custom"/>
    <trip id="115" depart="121.26" from="1169939005_679645518_679645517" to="153955572_246684816_1665668611" type="vehicle_type_dist_custom"/>
    <trip id="116" depart="122.31" from="32879670_370345677_30480463" to="42313098_445769067_6600863001" type="vehicle_type_dist_custom"/>
    <trip id="117" depart="123.37" from="207920210_676784008_2419340798" to="1272009406_11811931879_262551601" type="vehicle_type_dist_custom"/>
    <trip id="118" depart="124.42" from="629542239_247645596_271378159" to="22736007_1546216534_1546216538" type="vehicle_type_dist_custom"/>
    <trip id="119" depart="125.48" from="32850474_370062518_1676284902" to="34474265_270437730_268674807" type="vehicle_type_dist_custom"/>
    <trip id="120" depart="126.53" from="25968392_283297167_283297168" to="31971030_243889566_10800404681" type="vehicle_type_dist_custom"/>
    <trip id="121" depart="127.58" from="28811002_203047206_2782970377" to="79510496_11070398459_186143838" type="vehicle_type_dist_custom"/>
    <trip id="122" depart="128.64" from="165010834_282686313_252217070" to="44847101_261045823_325245324" type="vehicle_type_dist_custom"/>
    <trip id="123" depart="129.69" from="217413034_309849790_403097939" to="25335245_1428357253_304978502" type="vehicle_type_dist_custom"/>
    <trip id="124" depart="130.75" from="41670067_483415421_352694698" to="23364505_252743020_252743022" type="vehicle_type_dist_custom"/>
    <trip id="125" depart="131.80" from="23652004_9934638528_256240575" to="496747110_274818228_274818229" type="vehicle_type_dist_custom"/>
    <trip id="126" depart="132.86" from="1168334486_252216055_321693285" to="26984315_295774280_295774289" type="vehicle_type_dist_custom"/>
    <trip id="127" depart="133.91" from="98552232_274820200_274819217" to="9828768_271914440_78536008" type="vehicle_type_dist_custom"/>
    <trip id="128" depart="134.96" from="1168336990_686772020_321693230" to="17346544_149010615_249470057" type="vehicle_type_dist_custom"/>
    <trip id="129" depart="136.02" from="23027756_276648682_248421119" to="776746505_256503904_256503907" type="vehicle_type_dist_custom"/>
    <trip id="130" depart="137.07" from="629487711_2261837591_2261837597" to="629487706_1546211195_25551140" type="vehicle_type_dist_custom"/>
    <trip id="131" depart="138.13" from="25046204_272477959_252213906" to="1333682962_12338995934_10538366189" type="vehicle_type_dist_custom"/>
    <trip id="132" depart="139.18" from="58877098_729562962_186143786" to="444635743_25292103_9934636691" type="vehicle_type_dist_custom"/>
    <trip id="133" depart="140.24" from="33578116_8187797512_262549900" to="970313522_3233064680_9915303260" type="vehicle_type_dist_custom"/>
    <trip id="134" depart="141.29" from="397086842_684307162_289353604" to="1009666562_352783643_352783642" type="vehicle_type_dist_custom"/>
    <trip id="135" depart="142.35" from="56235059_272054817_65076396" to="23360162_253039502_316775003" type="vehicle_type_dist_custom"/>
    <trip id="136" depart="143.40" from="41222346_304971756_10002556574" to="816949545_687852544_246282281" type="vehicle_type_dist_custom"/>
    <trip id="137" depart="144.45" from="1285493224_11924957094_252205354" to="1271514687_262551606_11807717220" type="vehicle_type_dist_custom"/>
    <trip id="138" depart="145.51" from="1268191584_186143801_6543384589" to="30850290_343147211_503467621" type="vehicle_type_dist_custom"/>
    <trip id="139" depart="146.56" from="23194773_207304602_25435941" to="33181448_155227769_155227675" type="vehicle_type_dist_custom"/>
    <trip id="140" depart="147.62" from="44847114_283297158_283297145" to="165010834_252217070_282686313" type="vehicle_type_dist_custom"/>
    <trip id="141" depart="148.67" from="37179875_370573474_11070398462" to="22974185_670741122_699572956" type="vehicle_type_dist_custom"/>
    <trip id="142" depart="149.73" from="27773226_8424218510_252470629" to="65543618_246684705_246684706" type="vehicle_type_dist_custom"/>
    <trip id="143" depart="150.78" from="60295056_34596405_25897680" to="1183303174_259026495_283102080" type="vehicle_type_dist_custom"/>
    <trip id="144" depart="151.84" from="25991905_146963916_146963935" to="23301014_207307089_252216413" type="vehicle_type_dist_custom"/>
    <trip id="145" depart="152.89" from="1000506202_149370104_149383178" to="52890153_280394324_259025412" type="vehicle_type_dist_custom"/>
    <trip id="146" depart="153.94" from="37518001_92896812_305005399" to="22973895_247646233_248453907" type="vehicle_type_dist_custom"/>
    <trip id="147" depart="155.00" from="486698571_679451984_6416443891" to="30647261_286450625_286450614" type="vehicle_type_dist_custom"/>
    <trip id="148" depart="156.05" from="26124882_186131720_291662546" to="1019017568_285999672_128526825" type="vehicle_type_dist_custom"/>
    <trip id="149" depart="157.11" from="1169137591_10871799422_30480931" to="629487719_10764877613_10764877610" type="vehicle_type_dist_custom"/>
    <trip id="150" depart="158.16" from="653939079_179627185_729680470" to="30134195_503561589_8397125391" type="vehicle_type_dist_custom"/>
    <trip id="151" depart="159.22" from="58880117_498331849_8191147417" to="318210203_718467200_461628881" type="vehicle_type_dist_custom"/>
    <trip id="152" depart="160.27" from="1305420700_12090576282_252947902" to="1281812437_693845741_11174943072" type="vehicle_type_dist_custom"/>
    <trip id="153" depart="161.33" from="23558714_255111058_255111057" to="629542409_681320358_10078233045" type="vehicle_type_dist_custom"/>
    <trip id="154" depart="162.38" from="53836114_164366_679672922" to="625169352_731883644_25392765" type="vehicle_type_dist_custom"/>
    <trip id="155" depart="163.43" from="629542409_274817351_10078233045" to="172322040_259024632_288719033" type="vehicle_type_dist_custom"/>
    <trip id="156" depart="164.49" from="22736712_285641543_286572266" to="1231305197_11419666033_11419666034" type="vehicle_type_dist_custom"/>
    <trip id="157" depart="165.54" from="53084998_25435592_25435594" to="629487721_793883955_249477210" type="vehicle_type_dist_custom"/>
    <trip id="158" depart="166.60" from="25618426_291662510_291662522" to="34555810_272772263_274818228" type="vehicle_type_dist_custom"/>
    <trip id="159" depart="167.65" from="1329566280_8167589434_148226772" to="770525176_348740218_577856361" type="vehicle_type_dist_custom"/>
    <trip id="160" depart="168.71" from="62645707_180350873_152786758" to="93457073_920201734_283549021" type="vehicle_type_dist_custom"/>
    <trip id="161" depart="169.76" from="55751866_25292100_9934636673" to="629487714_392666893_9934636679" type="vehicle_type_dist_custom"/>
    <trip id="162" depart="170.81" from="10622673_5942507430_286450554" to="470786224_21694605_10624828495" type="vehicle_type_dist_custom"/>
    <trip id="163" depart="171.87" from="23915791_252205669_324321785" to="770525178_288719030_10704173561" type="vehicle_type_dist_custom"/>
    <trip id="164" depart="172.92" from="542665955_702242942_6528518860" to="62645707_155227760_413531005" type="vehicle_type_dist_custom"/>
    <trip id="165" depart="173.98" from="55751866_25292100_9934636673" to="23027975_256241496_256240891" type="vehicle_type_dist_custom"/>
    <trip id="166" depart="175.03" from="53256816_673863651_274091593" to="1268724426_300597773_1188782494" type="vehicle_type_dist_custom"/>
    <trip id="167" depart="176.09" from="628143182_25613280_718500967" to="62352952_78536032_4417600939" type="vehicle_type_dist_custom"/>
    <trip id="168" depart="177.14" from="17983654_255166165_255166167" to="56235005_25435699_749843799" type="vehicle_type_dist_custom"/>
    <trip id="169" depart="178.20" from="27004387_296000278_296000736" to="23463323_254095254_718588086" type="vehicle_type_dist_custom"/>
    <trip id="170" depart="179.25" from="53836112_679672920_250832113" to="191717499_718588120_92921193" type="vehicle_type_dist_custom"/>
    <trip id="171" depart="180.30" from="10621700_2213718447_3304302757" to="159674279_391444363_10177320671" type="vehicle_type_dist_custom"/>
    <trip id="172" depart="181.36" from="23897718_288719028_25897635" to="62645707_180346652_155227760" type="vehicle_type_dist_custom"/>
    <trip id="173" depart="182.41" from="886482349_671828248_671828247" to="23317833_280526418_252469655" type="vehicle_type_dist_custom"/>
    <trip id="174" depart="183.47" from="37519805_295013366_715064710" to="254862128_370049669_1213039025" type="vehicle_type_dist_custom"/>
    <trip id="175" depart="184.52" from="953991794_796657327_9934339310" to="296684453_3004968813_553381207" type="vehicle_type_dist_custom"/>
    <trip id="176" depart="185.58" from="820141314_686815746_300076727" to="1271514687_262551606_11807717220" type="vehicle_type_dist_custom"/>
    <trip id="177" depart="186.63" from="90060957_252652225_252652226" to="147010685_1602066527_8972725305" type="vehicle_type_dist_custom"/>
    <trip id="178" depart="187.69" from="886482295_3233292190_289353823" to="23027937_256218790_248426076" type="vehicle_type_dist_custom"/>
    <trip id="179" depart="188.74" from="1268721205_5718654243_674799109" to="26170820_286582545_286582550" type="vehicle_type_dist_custom"/>
    <trip id="180" depart="189.79" from="46843345_247441610_283297207" to="23564661_259857747_255166168" type="vehicle_type_dist_custom"/>
    <trip id="181" depart="190.85" from="33181820_252743022_252205270" to="28305250_10588024290_10588024291" type="vehicle_type_dist_custom"/>
    <trip id="182" depart="191.90" from="25204419_3233292706_8635874124" to="316263088_10602267400_10602350256" type="vehicle_type_dist_custom"/>
    <trip id="183" depart="192.96" from="22883958_321693166_207307089" to="44847056_292038009_487085309" type="vehicle_type_dist_custom"/>
    <trip id="184" depart="194.01" from="1000505442_252979582_9235304510" to="770074669_259025412_259025327" type="vehicle_type_dist_custom"/>
    <trip id="185" depart="195.07" from="296766739_164353_10879187213" to="44847127_304947082_304947084" type="vehicle_type_dist_custom"/>
    <trip id="186" depart="196.12" from="490156561_25613280_268431500" to="41453495_21656110_252935077" type="vehicle_type_dist_custom"/>
    <trip id="187" depart="197.18" from="25008117_271873683_207302213" to="1167984283_10862563996_7172124099" type="vehicle_type_dist_custom"/>
    <trip id="188" depart="198.23" from="41311467_6528518853_338913772" to="23897835_10176328629_6528518859" type="vehicle_type_dist_custom"/>
    <trip id="189" depart="199.28" from="23564661_255166167_255166168" to="60442241_752870395_130116063" type="vehicle_type_dist_custom"/>
    <trip id="190" depart="200.34" from="44847129_252470986_252472042" to="23364505_252745527_252743020" type="vehicle_type_dist_custom"/>
    <trip id="191" depart="201.39" from="23558715_416827939_149010612" to="25715692_280391559_280391546" type="vehicle_type_dist_custom"/>
    <trip id="192" depart="202.45" from="25606994_279107225_305004106" to="233568450_2419340798_2419340815" type="vehicle_type_dist_custom"/>
    <trip id="193" depart="203.50" from="1279325570_254092100_11876393436" to="25968394_283297179_283297178" type="vehicle_type_dist_custom"/>
    <trip id="194" depart="204.56" from="824216397_672526209_5902818341" to="4236577_25292278_25292097" type="vehicle_type_dist_custom"/>
    <trip id="195" depart="205.61" from="650780418_272503796_270998679" to="34200473_345166060_92896812" type="vehicle_type_dist_custom"/>
    <trip id="196" depart="206.66" from="23364505_3275298730_252745527" to="301839414_3059918040_262551626" type="vehicle_type_dist_custom"/>
    <trip id="197" depart="207.72" from="1000502539_252980882_694164082" to="233272179_2416402543_274092309" type="vehicle_type_dist_custom"/>
    <trip id="198" depart="208.77" from="26155041_33779220_33779225" to="318129573_461628881_272506688" type="vehicle_type_dist_custom"/>
    <trip id="199" depart="209.83" from="39843435_273423077_21451466" to="27078669_285992392_674954545" type="vehicle_type_dist_custom"/>
    <trip id="200" depart="210.88" from="26442303_289753398_280659948" to="17346818_252981174_298163313" type="vehicle_type_dist_custom"/>
    <trip id="201" depart="211.94" from="27410903_300909042_271880509" to="64625179_793883955_8187833489" type="vehicle_type_dist_custom"/>
    <trip id="202" depart="212.99" from="53836113_705725514_679672914" to="13796743_752870500_130116063" type="vehicle_type_dist_custom"/>
    <trip id="203" depart="214.05" from="1170865431_21694355_1207649607" to="286761863_729552748_30480463" type="vehicle_type_dist_custom"/>
    <trip id="204" depart="215.10" from="36861709_428591860_273099466" to="24250090_262549842_262549989" type="vehicle_type_dist_custom"/>
    <trip id="205" depart="216.15" from="56722420_186143835_11070398465" to="496747106_274817457_186145688" type="vehicle_type_dist_custom"/>